Auto-Transcript Start Time:  06:23:24, 24 Nov 2022 Hora oficial do Brasil 
Current Directory: "D:\ECL\TP2FLE\Etude numerique (simulation)"

              Welcome to ANSYS Fluent 2022 R2

              Copyright 1987-2022 ANSYS, Inc. All Rights Reserved.
              Unauthorized use, distribution or duplication is prohibited.
              This product is subject to U.S. laws governing export and re-export.
              For full Legal Notice, see documentation.

Build Time: May 27 2022 08:53:57 EDT  Build Id: 10212  
 
Connected License Server List:	

*********************************************
Info: Your license enables 4-way parallel execution.
For faster simulations, please start the application with the appropriate parallel options.
*********************************************


     --------------------------------------------------------------
     This is a student version of ANSYS FLUENT. Usage of this product
     license is limited to the terms and conditions specified in your ANSYS
     license form, additional terms section.
     --------------------------------------------------------------
Host spawning Node 0 on machine "DESKTOP-Q48GHOV" (win64).

-----------------------------------------------------------------------------------
ID    Hostname         Core  O.S.         PID    Vendor                           
-----------------------------------------------------------------------------------
n0    DESKTOP-Q48GHOV  1/12  Windows-x64  12272  Intel(R) Core(TM) i5-10500H      
host  DESKTOP-Q48GHOV        Windows-x64  14788  Intel(R) Core(TM) i5-10500H      

MPI Option Selected: intel
-----------------------------------------------------------------------------------

Cleanup script file is D:\\ECL\\TP2FLE\\Etude numerique (simulation)\\cleanup-fluent-DESKTOP-Q48GHOV-14788.bat

> (cx-gui-do cx-activate-item "MenuBar*ReadSubMenu*Mesh...")
(cx-gui-do cx-set-file-dialog-entries "Select File" '( "mesh_jet_extended_2018.msh") "All Mesh Files (*.msh* *.MSH* )")
Multicore SMT processors detected. Processor affinity set!
Reading "D:/ECL/TP2FLE/Etude numerique (simulation)/mesh_jet_extended_2018.msh"...
Buffering for file scan...

   18291 nodes.
     250 mixed axis faces, zone  3.
Warning: Reversing 30 faces, zone  3.
      90 mixed pressure-outlet faces, zone  4.
     230 mixed pressure-inlet faces, zone  5.
Warning: Reversing 200 faces, zone  5.
      15 mixed wall faces, zone  6.
Warning: Reversing 15 faces, zone  6.
      70 mixed wall faces, zone  7.
Warning: Reversing 70 faces, zone  7.
      25 mixed mass-flow-inlet faces, zone  8.
Warning: Reversing 25 faces, zone  8.
   35560 mixed interior faces, zone 10.
   17950 quadrilateral cells, zone  2.

Building...
     mesh
     materials,
     interface,
     domains,
     zones,
	default-interior
	entree
	buse_interne
	buse_levre
	cotes
	sortie
	axe
	fluid
     parallel,
Done.

Preparing mesh for display...
Warning: The use of axis boundary conditions is not appropriate for
         a 2D/3D flow problem. Please consider changing the zone
         type to symmetry or wall, or the problem to axisymmetric.

Warning: The use of axis boundary conditions is not appropriate for
         a 2D/3D flow problem. Please consider changing the zone
         type to symmetry or wall, or the problem to axisymmetric.

Done.
(cx-use-window-id 51)
(handle-key "control ??")
(cx-use-window-id 51)
(handle-key "control ??")
(cx-use-window-id 51)
(handle-key "control ??")
(cx-use-window-id 51)
(cx-use-window-id 51)
(cx-use-window-id 51)
(handle-key "??")
(cx-use-window-id 51)
(handle-key "??")
(cx-gui-do cx-set-list-tree-selections "NavigationPane*Frame2*Table1*List_Tree2" (list "Setup|Models"))
(cx-gui-do cx-set-list-tree-selections "NavigationPane*Frame2*Table1*List_Tree2" (list "Setup|Models"))
(cx-gui-do cx-activate-item "NavigationPane*Frame2*Table1*List_Tree2")
(cx-gui-do cx-set-list-tree-selections "NavigationPane*Frame2*Table1*List_Tree2" (list "Setup|Models"))
(cx-gui-do cx-set-list-selections "Models*Table1*List1(Models)" '( 2))
(cx-gui-do cx-activate-item "Models*Table1*List1(Models)")
(cx-gui-do cx-activate-item "Models*Table1*PushButton2(Edit)")
(cx-gui-do cx-set-toggle-button2 "Viscous Model*Table1*ToggleBox1(Model)*k-epsilon (2 eqn)" #t)
(cx-gui-do cx-activate-item "Viscous Model*Table1*ToggleBox1(Model)*k-epsilon (2 eqn)")
(cx-gui-do cx-activate-item "Viscous Model*PanelButtons*PushButton1(OK)")

Adjusting the following setting:
Changing Discretization Scheme for Turbulent Kinetic Energy:   from: Second Order Upwind   to: First Order Upwind
Warning: The use of axis boundary conditions is not appropriate for
         a 2D/3D flow problem. Please consider changing the zone
         type to symmetry or wall, or the problem to axisymmetric.

(cx-gui-do cx-set-list-tree-selections "NavigationPane*Frame2*Table1*List_Tree2" (list "Setup|Materials"))
(cx-gui-do cx-set-list-tree-selections "NavigationPane*Frame2*Table1*List_Tree2" (list "Setup|Materials"))
(cx-gui-do cx-activate-item "NavigationPane*Frame2*Table1*List_Tree2")
(cx-gui-do cx-set-list-tree-selections "NavigationPane*Frame2*Table1*List_Tree2" (list "Setup|Materials"))
(cx-gui-do cx-set-list-selections "Materials*Table1*List1(Materials)" '( 1))
(cx-gui-do cx-activate-item "Materials*Table1*List1(Materials)")
(cx-gui-do cx-activate-item "Materials*Table1*ButtonBox2*PushButton1(Create/Edit)")
(cx-gui-do cx-activate-item "Create/Edit Materials*PanelButtons*PushButton1(Close)")
(cx-gui-do cx-activate-item "Materials*Table1*ButtonBox2*PushButton1(Create/Edit)")
(cx-gui-do cx-set-real-entry-list "Create/Edit Materials*RealEntry10" '( 1.2))
(cx-gui-do cx-activate-item "Create/Edit Materials*PanelButtons*PushButton3(Change/Create)")
Warning: The use of axis boundary conditions is not appropriate for
         a 2D/3D flow problem. Please consider changing the zone
         type to symmetry or wall, or the problem to axisymmetric.

(cx-gui-do cx-activate-item "Create/Edit Materials*PanelButtons*PushButton1(Close)")
(cx-gui-do cx-activate-item "Materials*Table1*ButtonBox2*PushButton1(Create/Edit)")
(cx-gui-do cx-set-real-entry-list "Create/Edit Materials*RealEntry16" '( 1.82e-05))
(cx-gui-do cx-activate-item "Create/Edit Materials*PanelButtons*PushButton3(Change/Create)")
Warning: The use of axis boundary conditions is not appropriate for
         a 2D/3D flow problem. Please consider changing the zone
         type to symmetry or wall, or the problem to axisymmetric.

(cx-gui-do cx-activate-item "Create/Edit Materials*PanelButtons*PushButton1(Close)")
(cx-gui-do cx-activate-item "Materials*Table1*ButtonBox2*PushButton1(Create/Edit)")
(cx-gui-do cx-activate-item "Create/Edit Materials*PanelButtons*PushButton1(Close)")
(cx-gui-do cx-set-list-tree-selections "NavigationPane*Frame2*Table1*List_Tree2" (list "Setup|Boundary Conditions"))
(cx-gui-do cx-set-list-tree-selections "NavigationPane*Frame2*Table1*List_Tree2" (list "Setup|Boundary Conditions"))
(cx-gui-do cx-activate-item "NavigationPane*Frame2*Table1*List_Tree2")
(cx-gui-do cx-set-list-tree-selections "NavigationPane*Frame2*Table1*List_Tree2" (list "Setup|Boundary Conditions"))
(cx-gui-do cx-set-list-selections "Boundary Conditions*Table1*List2(Zone)" '( 6))
(cx-gui-do cx-activate-item "Boundary Conditions*Table1*List2(Zone)")
(cx-gui-do cx-activate-item "Boundary Conditions*Table1*Table3*Table4*ButtonBox1*PushButton1(Edit)")
(cx-gui-do cx-activate-tab-index "Pressure Outlet*Frame2*Frame2" 0)
(cx-gui-do cx-activate-tab-index "Pressure Outlet*Frame2*Frame2" 1)
(cx-gui-do cx-activate-tab-index "Pressure Outlet*Frame2*Frame2" 0)
(cx-gui-do cx-activate-tab-index "Pressure Outlet*Frame2*Frame2" 2)
(cx-gui-do cx-activate-tab-index "Pressure Outlet*Frame2*Frame2" 0)
(cx-gui-do cx-activate-tab-index "Pressure Outlet*Frame2*Frame2" 3)
(cx-gui-do cx-activate-tab-index "Pressure Outlet*Frame2*Frame2" 0)
(cx-gui-do cx-activate-tab-index "Pressure Outlet*Frame2*Frame2" 4)
(cx-gui-do cx-activate-tab-index "Pressure Outlet*Frame2*Frame2" 0)
(cx-gui-do cx-activate-tab-index "Pressure Outlet*Frame2*Frame2" 5)
(cx-gui-do cx-activate-tab-index "Pressure Outlet*Frame2*Frame2" 0)
(cx-gui-do cx-activate-tab-index "Pressure Outlet*Frame2*Frame2" 6)
(cx-gui-do cx-activate-tab-index "Pressure Outlet*Frame2*Frame2" 0)
(cx-gui-do cx-activate-tab-index "Pressure Outlet*Frame2*Frame2" 7)
(cx-gui-do cx-activate-tab-index "Pressure Outlet*Frame2*Frame2" 0)
(cx-gui-do cx-activate-tab-index "Pressure Outlet*Frame2*Frame2" 8)
(cx-gui-do cx-activate-tab-index "Pressure Outlet*Frame2*Frame2" 0)
(cx-gui-do cx-activate-item "Pressure Outlet*PanelButtons*PushButton2(Cancel)")
(cx-gui-do cx-set-list-tree-selections "NavigationPane*Frame2*Table1*List_Tree2" (list "Setup|Models|Viscous (Standard k-e, Standard Wall Fn)"))
(cx-gui-do cx-set-list-tree-selections "NavigationPane*Frame2*Table1*List_Tree2" (list "Setup|Models|Viscous (Standard k-e, Standard Wall Fn)"))
(cx-gui-do cx-activate-item "NavigationPane*Frame2*Table1*List_Tree2")
(cx-gui-do cx-set-list-tree-selections "NavigationPane*Frame2*Table1*List_Tree2" (list "Setup|Models|Viscous (Standard k-e, Standard Wall Fn)"))
(cx-gui-do cx-activate-item "Viscous Model*PanelButtons*PushButton2(Cancel)")
(cx-gui-do cx-activate-item "Boundary Conditions*Table1*Table3*Table4*ButtonBox1*PushButton1(Edit)")
(cx-gui-do cx-activate-item "Pressure Outlet*PanelButtons*PushButton2(Cancel)")
(cx-gui-do cx-set-list-selections "Boundary Conditions*Table1*List2(Zone)" '( 3))
(cx-gui-do cx-activate-item "Boundary Conditions*Table1*List2(Zone)")
(cx-gui-do cx-activate-item "Boundary Conditions*Table1*Table3*Table4*ButtonBox1*PushButton1(Edit)")
(cx-gui-do cx-activate-tab-index "Pressure Inlet*Frame2*Frame2" 0)
(cx-gui-do cx-activate-tab-index "Pressure Inlet*Frame2*Frame2" 1)
(cx-gui-do cx-activate-tab-index "Pressure Inlet*Frame2*Frame2" 0)
(cx-gui-do cx-activate-tab-index "Pressure Inlet*Frame2*Frame2" 2)
(cx-gui-do cx-activate-tab-index "Pressure Inlet*Frame2*Frame2" 0)
(cx-gui-do cx-activate-tab-index "Pressure Inlet*Frame2*Frame2" 3)
(cx-gui-do cx-activate-tab-index "Pressure Inlet*Frame2*Frame2" 0)
(cx-gui-do cx-activate-tab-index "Pressure Inlet*Frame2*Frame2" 4)
(cx-gui-do cx-activate-tab-index "Pressure Inlet*Frame2*Frame2" 0)
(cx-gui-do cx-activate-tab-index "Pressure Inlet*Frame2*Frame2" 5)
(cx-gui-do cx-activate-tab-index "Pressure Inlet*Frame2*Frame2" 0)
(cx-gui-do cx-activate-tab-index "Pressure Inlet*Frame2*Frame2" 6)
(cx-gui-do cx-activate-tab-index "Pressure Inlet*Frame2*Frame2" 0)
(cx-gui-do cx-activate-tab-index "Pressure Inlet*Frame2*Frame2" 7)
(cx-gui-do cx-activate-tab-index "Pressure Inlet*Frame2*Frame2" 0)
(cx-gui-do cx-activate-tab-index "Pressure Inlet*Frame2*Frame2" 8)
(cx-gui-do cx-activate-tab-index "Pressure Inlet*Frame2*Frame2" 0)
(cx-gui-do cx-activate-item "Pressure Inlet*PanelButtons*PushButton2(Cancel)")
(cx-gui-do cx-set-list-selections "Boundary Conditions*Table1*List2(Zone)" '( 1))
(cx-gui-do cx-activate-item "Boundary Conditions*Table1*List2(Zone)")
(cx-gui-do cx-activate-item "Boundary Conditions*Table1*Table3*Table4*ButtonBox1*PushButton1(Edit)")
(cx-gui-do cx-activate-tab-index "Wall*Frame4" 0)
(cx-gui-do cx-activate-tab-index "Wall*Frame4" 1)
(cx-gui-do cx-activate-tab-index "Wall*Frame4" 0)
(cx-gui-do cx-activate-tab-index "Wall*Frame4" 2)
(cx-gui-do cx-activate-tab-index "Wall*Frame4" 0)
(cx-gui-do cx-activate-tab-index "Wall*Frame4" 3)
(cx-gui-do cx-activate-tab-index "Wall*Frame4" 0)
(cx-gui-do cx-activate-tab-index "Wall*Frame4" 4)
(cx-gui-do cx-activate-tab-index "Wall*Frame4" 0)
(cx-gui-do cx-activate-tab-index "Wall*Frame4" 5)
(cx-gui-do cx-activate-tab-index "Wall*Frame4" 0)
(cx-gui-do cx-activate-tab-index "Wall*Frame4" 6)
(cx-gui-do cx-activate-tab-index "Wall*Frame4" 0)
(cx-gui-do cx-activate-tab-index "Wall*Frame4" 7)
(cx-gui-do cx-activate-tab-index "Wall*Frame4" 0)
(cx-gui-do cx-activate-tab-index "Wall*Frame4" 8)
(cx-gui-do cx-activate-tab-index "Wall*Frame4" 0)
(cx-gui-do cx-activate-tab-index "Wall*Frame4" 9)
(cx-gui-do cx-activate-tab-index "Wall*Frame4" 0)
(cx-gui-do cx-activate-tab-index "Wall*Frame4" 10)
(cx-gui-do cx-activate-tab-index "Wall*Frame4" 0)
(cx-gui-do cx-activate-tab-index "Wall*Frame4*Frame8(Wall Film)*Frame1*Frame2" 0)
(cx-gui-do cx-activate-tab-index "Wall*Frame4*Frame8(Wall Film)*Frame1*Frame2" 1)
(cx-gui-do cx-activate-tab-index "Wall*Frame4*Frame8(Wall Film)*Frame1*Frame2" 0)
(cx-gui-do cx-activate-tab-index "Wall*Frame4*Frame8(Wall Film)*Frame1*Frame2" 2)
(cx-gui-do cx-activate-tab-index "Wall*Frame4*Frame8(Wall Film)*Frame1*Frame2" 0)
(cx-gui-do cx-activate-tab-index "Wall*Frame4*Frame8(Wall Film)*Frame1*Frame2" 3)
(cx-gui-do cx-activate-tab-index "Wall*Frame4*Frame8(Wall Film)*Frame1*Frame2" 0)
(cx-gui-do cx-activate-tab-index "Wall*Frame4*Frame8(Wall Film)*Frame1*Frame2" 4)
(cx-gui-do cx-activate-tab-index "Wall*Frame4*Frame8(Wall Film)*Frame1*Frame2" 0)
(cx-gui-do cx-activate-tab-index "Wall*Frame4*Frame8(Wall Film)*Frame1*Frame2" 5)
(cx-gui-do cx-activate-tab-index "Wall*Frame4*Frame8(Wall Film)*Frame1*Frame2" 0)
(cx-gui-do cx-activate-item "Wall*PanelButtons*PushButton2(Cancel)")
(cx-use-window-id 51)
(cx-use-window-id 51)
(handle-key "control ??")
(cx-use-window-id 51)
(handle-key "control ??")
(cx-use-window-id 51)
(handle-key "control ??")
(cx-use-window-id 51)
(handle-key "control ??")
(cx-use-window-id 51)
(handle-key "control ??")
(cx-use-window-id 51)
(handle-key "control ??")
(cx-use-window-id 51)
(handle-key "control ??")
(cx-use-window-id 51)
(handle-key "control ??")
(cx-use-window-id 51)
(handle-key "??")
(cx-use-window-id 51)
(handle-key "??")
(cx-use-window-id 51)
(handle-key "??")
(cx-use-window-id 51)
(handle-key "??")
(cx-gui-do cx-set-list-tree-selections "NavigationPane*Frame2*Table1*List_Tree2" (list "Setup|General"))
(cx-gui-do cx-set-list-tree-selections "NavigationPane*Frame2*Table1*List_Tree2" (list "Setup|General"))
(cx-gui-do cx-activate-item "NavigationPane*Frame2*Table1*List_Tree2")
(cx-gui-do cx-set-list-tree-selections "NavigationPane*Frame2*Table1*List_Tree2" (list "Setup|General"))
(cx-gui-do cx-set-list-tree-selections "NavigationPane*Frame2*Table1*List_Tree2" (list "Solution|Initialization"))
(cx-gui-do cx-set-list-tree-selections "NavigationPane*Frame2*Table1*List_Tree2" (list "Solution|Initialization"))
(cx-gui-do cx-activate-item "NavigationPane*Frame2*Table1*List_Tree2")
(cx-gui-do cx-set-list-tree-selections "NavigationPane*Frame2*Table1*List_Tree2" (list "Solution|Initialization"))
(cx-gui-do cx-set-list-tree-selections "NavigationPane*Frame2*Table1*List_Tree2" (list "Setup|Boundary Conditions"))
(cx-gui-do cx-set-list-tree-selections "NavigationPane*Frame2*Table1*List_Tree2" (list "Setup|Boundary Conditions"))
(cx-gui-do cx-activate-item "NavigationPane*Frame2*Table1*List_Tree2")
(cx-gui-do cx-set-list-tree-selections "NavigationPane*Frame2*Table1*List_Tree2" (list "Setup|Boundary Conditions"))
(cx-gui-do cx-set-list-selections "Boundary Conditions*Table1*List2(Zone)" '( 5))
(cx-gui-do cx-activate-item "Boundary Conditions*Table1*List2(Zone)")
(cx-gui-do cx-activate-item "Boundary Conditions*Table1*Table3*Table4*ButtonBox1*PushButton1(Edit)")
(cx-gui-do cx-activate-tab-index "Mass-Flow Inlet*Frame2*Frame2" 0)
(cx-gui-do cx-activate-tab-index "Mass-Flow Inlet*Frame2*Frame2" 1)
(cx-gui-do cx-activate-tab-index "Mass-Flow Inlet*Frame2*Frame2" 0)
(cx-gui-do cx-activate-tab-index "Mass-Flow Inlet*Frame2*Frame2" 2)
(cx-gui-do cx-activate-tab-index "Mass-Flow Inlet*Frame2*Frame2" 0)
(cx-gui-do cx-activate-tab-index "Mass-Flow Inlet*Frame2*Frame2" 3)
(cx-gui-do cx-activate-tab-index "Mass-Flow Inlet*Frame2*Frame2" 0)
(cx-gui-do cx-activate-tab-index "Mass-Flow Inlet*Frame2*Frame2" 4)
(cx-gui-do cx-activate-tab-index "Mass-Flow Inlet*Frame2*Frame2" 0)
(cx-gui-do cx-activate-tab-index "Mass-Flow Inlet*Frame2*Frame2" 5)
(cx-gui-do cx-activate-tab-index "Mass-Flow Inlet*Frame2*Frame2" 0)
(cx-gui-do cx-activate-tab-index "Mass-Flow Inlet*Frame2*Frame2" 6)
(cx-gui-do cx-activate-tab-index "Mass-Flow Inlet*Frame2*Frame2" 0)
(cx-gui-do cx-activate-tab-index "Mass-Flow Inlet*Frame2*Frame2" 7)
(cx-gui-do cx-activate-tab-index "Mass-Flow Inlet*Frame2*Frame2" 0)
(cx-gui-do cx-activate-tab-index "Mass-Flow Inlet*Frame2*Frame2" 8)
(cx-gui-do cx-activate-tab-index "Mass-Flow Inlet*Frame2*Frame2" 0)
(cx-gui-do cx-set-expression-entry "Mass-Flow Inlet*Frame2*Frame2*Frame1(Momentum)*Table1*Table8*ExpressionEntry1(Mass Flow Rate)" '("0" . 0))
(cx-gui-do cx-set-expression-entry "Mass-Flow Inlet*Frame2*Frame2*Frame1(Momentum)*Table1*Table8*ExpressionEntry1(Mass Flow Rate)" '("0" . 0))
(cx-gui-do cx-activate-item "Mass-Flow Inlet*PanelButtons*PushButton2(Cancel)")
(cx-gui-do cx-set-list-tree-selections "NavigationPane*Frame2*Table1*List_Tree2" (list "Solution|Methods"))
(cx-gui-do cx-set-list-tree-selections "NavigationPane*Frame2*Table1*List_Tree2" (list "Solution|Methods"))
(cx-gui-do cx-activate-item "NavigationPane*Frame2*Table1*List_Tree2")
(cx-gui-do cx-set-list-tree-selections "NavigationPane*Frame2*Table1*List_Tree2" (list "Solution|Methods"))
(cx-gui-do cx-set-list-selections "Solution Methods*Table1*Table3(Spatial Discretization)*DropDownList5(Turbulent Dissipation Rate)" '( 1))
(cx-gui-do cx-activate-item "Solution Methods*Table1*Table3(Spatial Discretization)*DropDownList5(Turbulent Dissipation Rate)")
(cx-gui-do cx-set-list-selections "Solution Methods*Table1*Table3(Spatial Discretization)*DropDownList4(Turbulent Kinetic Energy)" '( 1))
(cx-gui-do cx-activate-item "Solution Methods*Table1*Table3(Spatial Discretization)*DropDownList4(Turbulent Kinetic Energy)")
(cx-gui-do cx-set-list-tree-selections "NavigationPane*Frame2*Table1*List_Tree2" (list "Solution|Monitors"))
(cx-gui-do cx-set-list-tree-selections "NavigationPane*Frame2*Table1*List_Tree2" (list "Solution|Monitors"))
(cx-gui-do cx-activate-item "NavigationPane*Frame2*Table1*List_Tree2")
(cx-gui-do cx-set-list-tree-selections "NavigationPane*Frame2*Table1*List_Tree2" (list "Solution|Monitors"))
(cx-gui-do cx-set-list-tree-selections "NavigationPane*Frame2*Table1*List_Tree2" (list "Solution|Monitors"))
(cx-gui-do cx-set-list-tree-selections "NavigationPane*Frame2*Table1*List_Tree2" (list "Solution|Monitors"))
(cx-gui-do cx-set-list-tree-selections "NavigationPane*Frame2*Table1*List_Tree2" (list "Solution|Monitors"))
(cx-gui-do cx-activate-item "NavigationPane*Frame2*Table1*List_Tree2")
(cx-gui-do cx-set-list-tree-selections "NavigationPane*Frame2*Table1*List_Tree2" (list "Solution|Monitors"))
(cx-gui-do cx-set-list-tree-selections "NavigationPane*Frame2*Table1*List_Tree2" (list "Solution|Monitors|Residual"))
(cx-gui-do cx-set-list-tree-selections "NavigationPane*Frame2*Table1*List_Tree2" (list "Solution|Monitors|Residual"))
(cx-gui-do cx-activate-item "NavigationPane*Frame2*Table1*List_Tree2")
(cx-gui-do cx-set-list-tree-selections "NavigationPane*Frame2*Table1*List_Tree2" (list "Solution|Monitors|Residual"))
(cx-gui-do cx-set-toggle-button2 "Residual Monitors*Table1*Table2*Table1*Table1(Equations)*CheckButton10" #f)
(cx-gui-do cx-activate-item "Residual Monitors*Table1*Table2*Table1*Table1(Equations)*CheckButton10")
(cx-gui-do cx-set-toggle-button2 "Residual Monitors*Table1*Table2*Table1*Table1(Equations)*CheckButton16" #f)
(cx-gui-do cx-activate-item "Residual Monitors*Table1*Table2*Table1*Table1(Equations)*CheckButton16")
(cx-gui-do cx-set-toggle-button2 "Residual Monitors*Table1*Table2*Table1*Table1(Equations)*CheckButton22" #f)
(cx-gui-do cx-activate-item "Residual Monitors*Table1*Table2*Table1*Table1(Equations)*CheckButton22")
(cx-gui-do cx-set-toggle-button2 "Residual Monitors*Table1*Table2*Table1*Table1(Equations)*CheckButton28" #f)
(cx-gui-do cx-activate-item "Residual Monitors*Table1*Table2*Table1*Table1(Equations)*CheckButton28")
(cx-gui-do cx-set-toggle-button2 "Residual Monitors*Table1*Table2*Table1*Table1(Equations)*CheckButton34" #f)
(cx-gui-do cx-activate-item "Residual Monitors*Table1*Table2*Table1*Table1(Equations)*CheckButton34")
(cx-gui-do cx-set-toggle-button2 "Residual Monitors*Table1*Table2*CheckButton3(Show Advanced Options)" #t)
(cx-gui-do cx-activate-item "Residual Monitors*Table1*Table2*CheckButton3(Show Advanced Options)")
(cx-gui-do cx-activate-item "Residual Monitors*PanelButtons*PushButton1(OK)")
(cx-gui-do cx-set-list-tree-selections "NavigationPane*Frame2*Table1*List_Tree2" (list "Results|Surfaces"))
(cx-gui-do cx-set-list-tree-selections "NavigationPane*Frame2*Table1*List_Tree2" (list "Results|Surfaces"))
(cx-gui-do cx-activate-item "NavigationPane*Frame2*Table1*List_Tree2")
(cx-gui-do cx-set-list-tree-selections "NavigationPane*Frame2*Table1*List_Tree2" (list "Results|Surfaces"))
(cx-gui-do cx-activate-item "Surfaces*PanelButtons*PushButton2(Cancel)")
(cx-gui-do cx-set-list-tree-selections "NavigationPane*Frame2*Table1*List_Tree2" (list "Solution|Report Definitions"))
(cx-gui-do cx-set-list-tree-selections "NavigationPane*Frame2*Table1*List_Tree2" (list "Solution|Report Definitions"))
(cx-gui-do cx-activate-item "NavigationPane*Frame2*Table1*List_Tree2")
(cx-gui-do cx-set-list-tree-selections "NavigationPane*Frame2*Table1*List_Tree2" (list "Solution|Report Definitions"))
(cx-gui-do cx-activate-item "Report Definitions*Table1*ButtonBox3*PushButton1(New)")
(cx-gui-do cx-activate-item "MenuBar*Surface ReportSubMenu*Facet Maximum...")
(cx-gui-do cx-set-toggle-button2 "Surface Report Definition*Table1*Table1*Table6(Create)*CheckButton1(Report File)" #f)
(cx-gui-do cx-activate-item "Surface Report Definition*Table1*Table1*Table6(Create)*CheckButton1(Report File)")
(cx-gui-do cx-set-toggle-button2 "Surface Report Definition*Table1*Table1*Table6(Create)*CheckButton4(Print to Console)" #t)
(cx-gui-do cx-activate-item "Surface Report Definition*Table1*Table1*Table6(Create)*CheckButton4(Print to Console)")
(cx-gui-do cx-set-list-selections "Surface Report Definition*Table1*Table2*DropDownList3(Field Variable)" '( 2))
(cx-gui-do cx-activate-item "Surface Report Definition*Table1*Table2*DropDownList3(Field Variable)")
(cx-gui-do cx-set-list-selections "Surface Report Definition*Table1*Table2*Table6*List1(Surfaces)" '( 6))
(cx-gui-do cx-activate-item "Surface Report Definition*Table1*Table2*Table6*List1(Surfaces)")
(cx-gui-do cx-activate-item "Surface Report Definition*PanelButtons*PushButton1(OK)")
(cx-gui-do cx-activate-item "Report Definitions*PanelButtons*PushButton1(Close)")
(cx-gui-do cx-set-list-tree-selections "NavigationPane*Frame2*Table1*List_Tree2" (list "Results|Surfaces"))
(cx-gui-do cx-set-list-tree-selections "NavigationPane*Frame2*Table1*List_Tree2" (list "Results|Surfaces"))
(cx-gui-do cx-activate-item "NavigationPane*Frame2*Table1*List_Tree2")
(cx-gui-do cx-set-list-tree-selections "NavigationPane*Frame2*Table1*List_Tree2" (list "Results|Surfaces"))
(cx-gui-do cx-set-list-selections "Surfaces*Table1*List1(Surfaces)" '( 6))
(cx-gui-do cx-activate-item "Surfaces*Table1*List1(Surfaces)")
(cx-gui-do cx-activate-item "Surfaces*PanelButtons*PushButton2(Cancel)")
(cx-gui-do cx-activate-item "Ribbon*Frame1*Frame2(Domain)*Table1*Table3(Surface)*PushButton1(Create)")
(cx-gui-do cx-activate-item "MenuBar*PopupMenuCreate*Line/Rake...")
(cx-gui-do cx-set-text-entry "Line/Rake Surface*Table1*TextEntry1(New Surface Name)" "line-0")
(cx-gui-do cx-activate-item "Line/Rake Surface*Table1*ToggleBox2(Options)*PushButton2(Reset)")
(cx-gui-do cx-set-toggle-button2 "Line/Rake Surface*Table1*ToggleBox2(Options)*CheckButton1(Line Tool)" #t)
(cx-gui-do cx-activate-item "Line/Rake Surface*Table1*ToggleBox2(Options)*CheckButton1(Line Tool)")
(cx-gui-do cx-set-toggle-button2 "Line/Rake Surface*Table1*ToggleBox2(Options)*CheckButton1(Line Tool)" #f)
(cx-gui-do cx-activate-item "Line/Rake Surface*Table1*ToggleBox2(Options)*CheckButton1(Line Tool)")
(cx-gui-do cx-set-real-entry-list "Line/Rake Surface*Table1*Frame5(End Points)*Table1*RealEntry5(y1)" '( 0))
(cx-gui-do cx-set-real-entry-list "Line/Rake Surface*Table1*Frame5(End Points)*Table1*RealEntry1(x0)" '( 0))
(cx-gui-do cx-set-real-entry-list "Line/Rake Surface*Table1*Frame5(End Points)*Table1*RealEntry4(x1)" '( 0))
(cx-gui-do cx-activate-item "Line/Rake Surface*PanelButtons*PushButton1(OK)")
(cx-gui-do cx-activate-item "Line/Rake Surface*PanelButtons*PushButton2(Cancel)")
(cx-use-window-id 51)
(cxg-clear-all-selections (cx-active-window))
(cxg-add-surfaces-to-selection '(default-interior) (cx-active-window))
(cx-use-window-id 51)
(cxg-clear-all-selections (cx-active-window))
(cxg-add-surfaces-to-selection '(default-interior) (cx-active-window))
(cx-use-window-id 51)
(cx-use-window-id 51)
(cxg-clear-all-selections (cx-active-window))
(cxg-add-surfaces-to-selection '() (cx-active-window))
(cx-use-window-id 51)
(cx-gui-do cx-set-list-tree-selections "NavigationPane*Frame2*Table1*List_Tree2" (list "Results|Surfaces|line-0"))
(cx-gui-do cx-set-list-tree-selections "NavigationPane*Frame2*Table1*List_Tree2" (list "Results|Surfaces|line-0"))
(cx-gui-do cx-activate-item "NavigationPane*Frame2*Table1*List_Tree2")
(cx-gui-do cx-set-list-tree-selections "NavigationPane*Frame2*Table1*List_Tree2" (list "Results|Surfaces|line-0"))
(cx-gui-do cx-set-real-entry-list "Line/Rake Surface*Table1*Frame5(End Points)*Table1*RealEntry1(x0)" '( 0.2))
(cx-gui-do cx-set-real-entry-list "Line/Rake Surface*Table1*Frame5(End Points)*Table1*RealEntry4(x1)" '( 0.2))
(cx-gui-do cx-activate-item "Line/Rake Surface*PanelButtons*PushButton1(OK)")
(cx-gui-do cx-activate-item "Line/Rake Surface*PanelButtons*PushButton1(OK)")
(cx-gui-do cx-activate-item "Line/Rake Surface*PanelButtons*PushButton2(Cancel)")
(cx-use-window-id 51)
(cx-gui-do cx-set-list-tree-selections "NavigationPane*Frame2*Table1*List_Tree2" (list "Results|Surfaces|line-0"))
(cx-gui-do cx-set-list-tree-selections "NavigationPane*Frame2*Table1*List_Tree2" (list "Results|Surfaces|line-0"))
(cx-gui-do cx-activate-item "NavigationPane*Frame2*Table1*List_Tree2")
(cx-gui-do cx-set-list-tree-selections "NavigationPane*Frame2*Table1*List_Tree2" (list "Results|Surfaces|line-0"))
(cx-gui-do cx-activate-item "Line/Rake Surface*Table1*PushButton6(Select Points with Mouse)")
Probe function is assigned to Right Click(cx-gui-do cx-activate-item "Working*Cancel")
(cx-gui-do cx-activate-item "Line/Rake Surface*Table1*PushButton6(Select Points with Mouse)")
Probe function is assigned to Right Click(cx-use-window-id 51)
(cxg-clear-all-selections (cx-active-window))
(cxg-add-surfaces-to-selection '(entree) (cx-active-window))
(cx-use-window-id 51)
(cxg-clear-all-selections (cx-active-window))
(cxg-add-surfaces-to-selection '(default-interior) (cx-active-window))
(cx-gui-do cx-activate-item "Working*Cancel")
(cx-use-window-id 51)
(cxg-clear-all-selections (cx-active-window))
(cxg-add-surfaces-to-selection '(axe) (cx-active-window))
(cx-use-window-id 51)
(cxg-clear-all-selections (cx-active-window))
(cxg-add-surfaces-to-selection '(default-interior) (cx-active-window))
(cx-gui-do cx-activate-item "Quick Edit*Table1*PushButton4(icon_close)")
(cx-gui-do cx-activate-item "Line/Rake Surface*PanelButtons*PushButton2(Cancel)")
(cx-gui-do cx-set-list-tree-selections "NavigationPane*Frame2*Table1*List_Tree2" (list "Results|Surfaces|line-0"))
(cx-gui-do cx-set-list-tree-selections "NavigationPane*Frame2*Table1*List_Tree2" (list "Results|Surfaces|line-0"))
(cx-gui-do cx-activate-item "NavigationPane*Frame2*Table1*List_Tree2")
(cx-gui-do cx-set-list-tree-selections "NavigationPane*Frame2*Table1*List_Tree2" (list "Results|Surfaces|line-0"))
(cx-gui-do cx-set-text-entry "Line/Rake Surface*Table1*TextEntry1(New Surface Name)" "x20")
(cx-gui-do cx-activate-item "Line/Rake Surface*PanelButtons*PushButton1(OK)")
(cx-gui-do cx-activate-item "Line/Rake Surface*PanelButtons*PushButton2(Cancel)")
(cx-gui-do cx-set-list-tree-selections "NavigationPane*Frame2*Table1*List_Tree2" (list "Results|Surfaces"))
(cx-gui-do cx-set-list-tree-selections "NavigationPane*Frame2*Table1*List_Tree2" (list "Results|Surfaces"))
(cx-gui-do cx-activate-item "NavigationPane*Frame2*Table1*List_Tree2")
(cx-gui-do cx-set-list-tree-selections "NavigationPane*Frame2*Table1*List_Tree2" (list "Results|Surfaces"))
(cx-gui-do cx-activate-item "Surfaces*PanelButtons*PushButton2(Cancel)")
(cx-gui-do cx-activate-item "Ribbon*Frame1*Frame2(Domain)*Table1*Table3(Surface)*PushButton1(Create)")
(cx-gui-do cx-activate-item "MenuBar*PopupMenuCreate*Line/Rake...")
(cx-gui-do cx-set-text-entry "Line/Rake Surface*Table1*TextEntry1(New Surface Name)" "x80")
(cx-gui-do cx-set-real-entry-list "Line/Rake Surface*Table1*Frame5(End Points)*Table1*RealEntry1(x0)" '( 0.8))
(cx-gui-do cx-set-real-entry-list "Line/Rake Surface*Table1*Frame5(End Points)*Table1*RealEntry4(x1)" '( 0.8))
(cx-gui-do cx-activate-item "Line/Rake Surface*PanelButtons*PushButton2(Cancel)")
(cx-gui-do cx-set-list-tree-selections "NavigationPane*Frame2*Table1*List_Tree2" (list "Results|Surfaces|x20"))
(cx-gui-do cx-set-list-tree-selections "NavigationPane*Frame2*Table1*List_Tree2" (list "Results|Surfaces|x20"))
(cx-gui-do cx-activate-item "NavigationPane*Frame2*Table1*List_Tree2")
(cx-gui-do cx-set-list-tree-selections "NavigationPane*Frame2*Table1*List_Tree2" (list "Results|Surfaces|x20"))
(cx-gui-do cx-set-real-entry-list "Line/Rake Surface*Table1*Frame5(End Points)*Table1*RealEntry2(y0)" '( 0.217))
(cx-gui-do cx-set-real-entry-list "Line/Rake Surface*Table1*Frame5(End Points)*Table1*RealEntry5(y1)" '( 0.282))
(cx-gui-do cx-activate-item "Line/Rake Surface*PanelButtons*PushButton1(OK)")
(cx-gui-do cx-activate-item "Line/Rake Surface*PanelButtons*PushButton2(Cancel)")
(cx-gui-do cx-activate-item "Ribbon*Frame1*Frame2(Domain)*Table1*Table3(Surface)*PushButton1(Create)")
(cx-gui-do cx-activate-item "MenuBar*PopupMenuCreate*Line/Rake...")
(cx-gui-do cx-set-text-entry "Line/Rake Surface*Table1*TextEntry1(New Surface Name)" "x80")
(cx-gui-do cx-set-real-entry-list "Line/Rake Surface*Table1*Frame5(End Points)*Table1*RealEntry1(x0)" '( 0.8))
(cx-gui-do cx-set-real-entry-list "Line/Rake Surface*Table1*Frame5(End Points)*Table1*RealEntry4(x1)" '( 0.8))
(cx-gui-do cx-set-real-entry-list "Line/Rake Surface*Table1*Frame5(End Points)*Table1*RealEntry2(y0)" '( 0.252))
(cx-gui-do cx-set-real-entry-list "Line/Rake Surface*Table1*Frame5(End Points)*Table1*RealEntry5(y1)" '( 0.282))
(cx-gui-do cx-activate-item "Line/Rake Surface*PanelButtons*PushButton1(OK)")
(cx-gui-do cx-set-text-entry "Line/Rake Surface*Table1*TextEntry1(New Surface Name)" "x120")
(cx-gui-do cx-set-text-entry "Line/Rake Surface*Table1*TextEntry1(New Surface Name)" "x112")
(cx-gui-do cx-set-real-entry-list "Line/Rake Surface*Table1*Frame5(End Points)*Table1*RealEntry1(x0)" '( 1.12))
(cx-gui-do cx-set-real-entry-list "Line/Rake Surface*Table1*Frame5(End Points)*Table1*RealEntry4(x1)" '( 1.12))
(cx-gui-do cx-set-real-entry-list "Line/Rake Surface*Table1*Frame5(End Points)*Table1*RealEntry2(y0)" '( 0.228))
(cx-gui-do cx-set-real-entry-list "Line/Rake Surface*Table1*Frame5(End Points)*Table1*RealEntry5(y1)" '( 0.398))
(cx-gui-do cx-activate-item "Line/Rake Surface*PanelButtons*PushButton1(OK)")
(cx-gui-do cx-set-text-entry "Line/Rake Surface*Table1*TextEntry1(New Surface Name)" "x120")
(cx-gui-do cx-set-real-entry-list "Line/Rake Surface*Table1*Frame5(End Points)*Table1*RealEntry1(x0)" '( 1.2))
(cx-gui-do cx-set-real-entry-list "Line/Rake Surface*Table1*Frame5(End Points)*Table1*RealEntry4(x1)" '( 1.2))
(cx-gui-do cx-set-real-entry-list "Line/Rake Surface*Table1*Frame5(End Points)*Table1*RealEntry2(y0)" '( 0.224))
(cx-gui-do cx-set-real-entry-list "Line/Rake Surface*Table1*Frame5(End Points)*Table1*RealEntry5(y1)" '( 0.28))
(cx-gui-do cx-activate-item "Line/Rake Surface*PanelButtons*PushButton1(OK)")
(cx-gui-do cx-activate-item "Line/Rake Surface*PanelButtons*PushButton2(Cancel)")
(cx-use-window-id 51)
(cx-use-window-id 51)
(cx-use-window-id 51)
(cx-use-window-id 51)
(cx-use-window-id 51)
(cx-use-window-id 51)
(cx-use-window-id 51)
(cx-use-window-id 51)
(cx-use-window-id 51)
(cx-use-window-id 51)
(cx-use-window-id 51)
(cx-use-window-id 51)
(cx-use-window-id 51)
(cx-use-window-id 51)
(cx-use-window-id 51)
(cx-use-window-id 51)
(cx-use-window-id 51)
(cx-use-window-id 51)
(cx-use-window-id 51)
(cx-use-window-id 51)
(cx-use-window-id 51)
(cx-use-window-id 51)
(cx-use-window-id 51)
(cx-use-window-id 51)
(cx-use-window-id 51)
(cx-use-window-id 51)
(cx-use-window-id 51)
(handle-key "control ??")
(cx-use-window-id 51)
(handle-key "control ??")
(cx-use-window-id 51)
(handle-key "control ??")
(cx-use-window-id 51)
(handle-key "control ??")
(cx-use-window-id 51)
(cx-use-window-id 51)
(handle-key "control ??")
(cx-use-window-id 51)
(handle-key "control ??")
(cx-use-window-id 51)
(handle-key "control ??")
(cx-use-window-id 51)
(handle-key "control ??")
(cx-use-window-id 51)
(handle-key "control ??")
(cx-use-window-id 51)
(handle-key "control ??")
(cx-use-window-id 51)
(handle-key "control ??")
(cx-use-window-id 51)
(handle-key "control ??")
(cx-use-window-id 51)
(build-popup-menu)
(cx-gui-do cx-activate-item "ToolBar*Pointer*translate")
(cx-use-window-id 51)
(dolly-camera 1.66351 -1.65654 0)
(cx-use-window-id 51)
(dolly-camera 0.129495 -0.046015 0)
(cx-use-window-id 51)
(handle-key "control ??")
(cx-use-window-id 51)
(handle-key "control ??")
(cx-use-window-id 51)
(dolly-camera 0.224205 -0.460313 0)
(cx-use-window-id 51)
(handle-key "control ??")
(cx-use-window-id 51)
(handle-key "control ??")
(cx-use-window-id 51)
(handle-key "control ??")
(cx-gui-do cx-set-list-tree-selections "NavigationPane*Frame2*Table1*List_Tree2" (list "Results|Surfaces|x120"))
(cx-gui-do cx-set-list-tree-selections "NavigationPane*Frame2*Table1*List_Tree2" (list "Solution|Initialization"))
(cx-gui-do cx-set-list-tree-selections "NavigationPane*Frame2*Table1*List_Tree2" (list "Solution|Initialization"))
(cx-gui-do cx-activate-item "NavigationPane*Frame2*Table1*List_Tree2")
(cx-gui-do cx-set-list-tree-selections "NavigationPane*Frame2*Table1*List_Tree2" (list "Solution|Initialization"))
(cx-gui-do cx-set-toggle-button2 "Solution Initialization*Table1*ToggleBox3(Initialization Methods)*Standard Initialization" #t)
(cx-gui-do cx-activate-item "Solution Initialization*Table1*ToggleBox3(Initialization Methods)*Standard Initialization")
(cx-gui-do cx-set-list-selections "Solution Initialization*Table1*DropDownList1(Compute from)" '( 5))
(cx-gui-do cx-activate-item "Solution Initialization*Table1*DropDownList1(Compute from)")
(cx-gui-do cx-set-list-tree-selections "NavigationPane*Frame2*Table1*List_Tree2" (list "Setup|Boundary Conditions"))
(cx-gui-do cx-set-list-tree-selections "NavigationPane*Frame2*Table1*List_Tree2" (list "Setup|Boundary Conditions"))
(cx-gui-do cx-activate-item "NavigationPane*Frame2*Table1*List_Tree2")
(cx-gui-do cx-set-list-tree-selections "NavigationPane*Frame2*Table1*List_Tree2" (list "Setup|Boundary Conditions"))
(cx-gui-do cx-activate-item "Boundary Conditions*Table1*Table3*Table4*ButtonBox1*PushButton1(Edit)")
(cx-gui-do cx-set-expression-entry "Mass-Flow Inlet*Frame2*Frame2*Frame1(Momentum)*Table1*Table8*ExpressionEntry1(Mass Flow Rate)" '("0" . 0))
(cx-gui-do cx-activate-item "Mass-Flow Inlet*PanelButtons*PushButton2(Cancel)")
(cx-gui-do cx-set-list-tree-selections "NavigationPane*Frame2*Table1*List_Tree2" (list "Setup|Boundary Conditions|Inlet"))
(cx-gui-do cx-set-list-tree-selections "NavigationPane*Frame2*Table1*List_Tree2" (list "Setup|Boundary Conditions|Inlet"))
(cx-gui-do cx-activate-item "NavigationPane*Frame2*Table1*List_Tree2")
(cx-gui-do cx-set-list-tree-selections "NavigationPane*Frame2*Table1*List_Tree2" (list "Setup|Boundary Conditions|Inlet"))
(cx-gui-do cx-set-list-tree-selections "NavigationPane*Frame2*Table1*List_Tree2" (list "Setup|Boundary Conditions|Inlet"))
(cx-gui-do cx-set-list-tree-selections "NavigationPane*Frame2*Table1*List_Tree2" (list "Setup|Boundary Conditions|Inlet"))
(cx-gui-do cx-activate-item "NavigationPane*Frame2*Table1*List_Tree2")
(cx-gui-do cx-set-list-tree-selections "NavigationPane*Frame2*Table1*List_Tree2" (list "Setup|Boundary Conditions|Inlet"))
(cx-gui-do cx-set-list-tree-selections "NavigationPane*Frame2*Table1*List_Tree2" (list "Results|Surfaces|x20"))
(cx-gui-do cx-set-list-tree-selections "NavigationPane*Frame2*Table1*List_Tree2" (list "Results|Surfaces|x20"))
(cx-gui-do cx-activate-item "NavigationPane*Frame2*Table1*List_Tree2")
(cx-gui-do cx-set-list-tree-selections "NavigationPane*Frame2*Table1*List_Tree2" (list "Results|Surfaces|x20"))
(cx-gui-do cx-set-real-entry-list "Line/Rake Surface*Table1*Frame5(End Points)*Table1*RealEntry2(y0)" '( 0))
(cx-gui-do cx-activate-item "Line/Rake Surface*PanelButtons*PushButton2(Cancel)")
(cx-gui-do cx-set-list-tree-selections "NavigationPane*Frame2*Table1*List_Tree2" (list "Setup|General"))
(cx-gui-do cx-set-list-tree-selections "NavigationPane*Frame2*Table1*List_Tree2" (list "Setup|General"))
(cx-gui-do cx-activate-item "NavigationPane*Frame2*Table1*List_Tree2")
(cx-gui-do cx-set-list-tree-selections "NavigationPane*Frame2*Table1*List_Tree2" (list "Setup|General"))
(cx-gui-do cx-activate-item "General*Table1*ButtonBox1(Mesh)*PushButton1(Scale)")
(cx-gui-do cx-activate-item "Scale Mesh*PanelButtons*PushButton1(Close)")
(cx-gui-do cx-set-list-tree-selections "NavigationPane*Frame2*Table1*List_Tree2" (list "Results|Surfaces|x112"))
(cx-gui-do cx-set-list-tree-selections "NavigationPane*Frame2*Table1*List_Tree2" (list "Results|Surfaces|x112"))
(cx-gui-do cx-activate-item "NavigationPane*Frame2*Table1*List_Tree2")
(cx-gui-do cx-set-list-tree-selections "NavigationPane*Frame2*Table1*List_Tree2" (list "Results|Surfaces|x112"))
(cx-gui-do cx-set-real-entry-list "Line/Rake Surface*Table1*Frame5(End Points)*Table1*RealEntry2(y0)" '( 0))
(cx-gui-do cx-set-real-entry-list "Line/Rake Surface*Table1*Frame5(End Points)*Table1*RealEntry5(y1)" '( 0.95))
(cx-gui-do cx-activate-item "Line/Rake Surface*PanelButtons*PushButton1(OK)")
(cx-gui-do cx-activate-item "Line/Rake Surface*PanelButtons*PushButton2(Cancel)")
(cx-gui-do cx-set-list-tree-selections "NavigationPane*Frame2*Table1*List_Tree2" (list "Results|Surfaces|x120"))
(cx-gui-do cx-set-list-tree-selections "NavigationPane*Frame2*Table1*List_Tree2" (list "Results|Surfaces|x120"))
(cx-gui-do cx-activate-item "NavigationPane*Frame2*Table1*List_Tree2")
(cx-gui-do cx-set-list-tree-selections "NavigationPane*Frame2*Table1*List_Tree2" (list "Results|Surfaces|x120"))
(cx-gui-do cx-set-real-entry-list "Line/Rake Surface*Table1*Frame5(End Points)*Table1*RealEntry2(y0)" '( 0))
(cx-gui-do cx-set-real-entry-list "Line/Rake Surface*Table1*Frame5(End Points)*Table1*RealEntry5(y1)" '( 0.95))
(cx-gui-do cx-activate-item "Line/Rake Surface*PanelButtons*PushButton1(OK)")
(cx-gui-do cx-activate-item "Line/Rake Surface*PanelButtons*PushButton2(Cancel)")
(cx-gui-do cx-set-list-tree-selections "NavigationPane*Frame2*Table1*List_Tree2" (list "Results|Surfaces|x20"))
(cx-gui-do cx-set-list-tree-selections "NavigationPane*Frame2*Table1*List_Tree2" (list "Results|Surfaces|x20"))
(cx-gui-do cx-activate-item "NavigationPane*Frame2*Table1*List_Tree2")
(cx-gui-do cx-set-list-tree-selections "NavigationPane*Frame2*Table1*List_Tree2" (list "Results|Surfaces|x20"))
(cx-gui-do cx-set-real-entry-list "Line/Rake Surface*Table1*Frame5(End Points)*Table1*RealEntry2(y0)" '( 0))
(cx-gui-do cx-set-real-entry-list "Line/Rake Surface*Table1*Frame5(End Points)*Table1*RealEntry5(y1)" '( 0.95))
(cx-gui-do cx-activate-item "Line/Rake Surface*PanelButtons*PushButton1(OK)")
(cx-gui-do cx-set-list-tree-selections "NavigationPane*Frame2*Table1*List_Tree2" (list "Results|Surfaces|x80"))
(cx-gui-do cx-set-list-tree-selections "NavigationPane*Frame2*Table1*List_Tree2" (list "Results|Surfaces|x80"))
(cx-gui-do cx-activate-item "NavigationPane*Frame2*Table1*List_Tree2")
(cx-gui-do cx-set-list-tree-selections "NavigationPane*Frame2*Table1*List_Tree2" (list "Results|Surfaces|x80"))
(cx-gui-do cx-activate-item "Line/Rake Surface*PanelButtons*PushButton2(Cancel)")
(cx-gui-do cx-set-list-tree-selections "NavigationPane*Frame2*Table1*List_Tree2" (list "Results|Surfaces|x80"))
(cx-gui-do cx-set-list-tree-selections "NavigationPane*Frame2*Table1*List_Tree2" (list "Results|Surfaces|x80"))
(cx-gui-do cx-activate-item "NavigationPane*Frame2*Table1*List_Tree2")
(cx-gui-do cx-set-list-tree-selections "NavigationPane*Frame2*Table1*List_Tree2" (list "Results|Surfaces|x80"))
(cx-gui-do cx-set-real-entry-list "Line/Rake Surface*Table1*Frame5(End Points)*Table1*RealEntry2(y0)" '( 0))
(cx-gui-do cx-set-real-entry-list "Line/Rake Surface*Table1*Frame5(End Points)*Table1*RealEntry5(y1)" '( 0.95))
(cx-gui-do cx-activate-item "Line/Rake Surface*PanelButtons*PushButton1(OK)")
(cx-gui-do cx-activate-item "Line/Rake Surface*PanelButtons*PushButton2(Cancel)")
(cx-gui-do cx-activate-item "General*Table1*ButtonBox1(Mesh)*PushButton1(Scale)")
(cx-gui-do cx-activate-item "Scale Mesh*PanelButtons*PushButton1(Close)")
(cx-gui-do cx-activate-item "General*Table1*ButtonBox1(Mesh)*PushButton3(Check)")

 Domain Extents:
   x-coordinate: min (m) = -4.000000e-01, max (m) = 2.000000e+00
   y-coordinate: min (m) = 0.000000e+00, max (m) = 9.500000e-01
 Volume statistics:
   minimum volume (m3): 3.094774e-07
   maximum volume (m3): 1.907240e-03
     total volume (m3): 1.571992e+00
 Face area statistics:
   minimum face area (m2): 4.940084e-04
   maximum face area (m2): 7.172074e-02
 Checking mesh............................
Done.
 (cx-gui-do cx-activate-item "General*Table1*ButtonBox1(Mesh)*PushButton2(Display)")
(cx-gui-do cx-activate-item "Mesh Display*PanelButtons*PushButton2(Cancel)")
(cx-use-window-id 51)
(dolly-camera -0.288961 0.0427529 0)
(cx-use-window-id 51)
(handle-key "??")
(cx-gui-do cx-set-list-tree-selections "NavigationPane*Frame2*Table1*List_Tree2" (list "Setup|Boundary Conditions"))
(cx-gui-do cx-set-list-tree-selections "NavigationPane*Frame2*Table1*List_Tree2" (list "Setup|Boundary Conditions"))
(cx-gui-do cx-set-list-tree-selections "NavigationPane*Frame2*Table1*List_Tree2" (list "Setup|Boundary Conditions"))
(cx-gui-do cx-activate-item "NavigationPane*Frame2*Table1*List_Tree2")
(cx-gui-do cx-set-list-tree-selections "NavigationPane*Frame2*Table1*List_Tree2" (list "Setup|Boundary Conditions"))
(cx-gui-do cx-activate-item "Boundary Conditions*Table1*Table3*Table4*ButtonBox1*PushButton1(Edit)")
(cx-gui-do cx-activate-item "Mass-Flow Inlet*PanelButtons*PushButton2(Cancel)")
(cx-gui-do cx-set-list-selections "Boundary Conditions*Table1*Table3*DropDownList2(Type)" '( 14))
(cx-gui-do cx-activate-item "Boundary Conditions*Table1*Table3*DropDownList2(Type)")
(cx-gui-do cx-activate-tab-index "Velocity Inlet*Frame2*Frame2" 0)
(cx-gui-do cx-activate-tab-index "Velocity Inlet*Frame2*Frame2" 1)
(cx-gui-do cx-activate-tab-index "Velocity Inlet*Frame2*Frame2" 0)
(cx-gui-do cx-activate-tab-index "Velocity Inlet*Frame2*Frame2" 2)
(cx-gui-do cx-activate-tab-index "Velocity Inlet*Frame2*Frame2" 0)
(cx-gui-do cx-activate-tab-index "Velocity Inlet*Frame2*Frame2" 3)
(cx-gui-do cx-activate-tab-index "Velocity Inlet*Frame2*Frame2" 0)
(cx-gui-do cx-activate-tab-index "Velocity Inlet*Frame2*Frame2" 4)
(cx-gui-do cx-activate-tab-index "Velocity Inlet*Frame2*Frame2" 0)
(cx-gui-do cx-activate-tab-index "Velocity Inlet*Frame2*Frame2" 5)
(cx-gui-do cx-activate-tab-index "Velocity Inlet*Frame2*Frame2" 0)
(cx-gui-do cx-activate-tab-index "Velocity Inlet*Frame2*Frame2" 6)
(cx-gui-do cx-activate-tab-index "Velocity Inlet*Frame2*Frame2" 0)
(cx-gui-do cx-activate-tab-index "Velocity Inlet*Frame2*Frame2" 7)
(cx-gui-do cx-activate-tab-index "Velocity Inlet*Frame2*Frame2" 0)
(cx-gui-do cx-activate-tab-index "Velocity Inlet*Frame2*Frame2" 8)
(cx-gui-do cx-activate-tab-index "Velocity Inlet*Frame2*Frame2" 0)
Warning: The use of axis boundary conditions is not appropriate for
         a 2D/3D flow problem. Please consider changing the zone
         type to symmetry or wall, or the problem to axisymmetric.

(cx-gui-do cx-enable-apply-button "Velocity Inlet")
(cx-gui-do cx-set-expression-entry "Velocity Inlet*Frame2*Frame2*Frame1(Momentum)*Table1*Table8*ExpressionEntry1(Velocity Magnitude)" '("2.16" . 0))
(cx-gui-do cx-activate-item "Velocity Inlet*PanelButtons*PushButton1(OK)")
(cx-gui-do cx-activate-item "Velocity Inlet*PanelButtons*PushButton2(Cancel)")
(cx-gui-do cx-set-list-tree-selections "NavigationPane*Frame2*Table1*List_Tree2" (list "Solution|Initialization"))
(cx-gui-do cx-set-list-tree-selections "NavigationPane*Frame2*Table1*List_Tree2" (list "Solution|Initialization"))
(cx-gui-do cx-activate-item "NavigationPane*Frame2*Table1*List_Tree2")
(cx-gui-do cx-set-list-tree-selections "NavigationPane*Frame2*Table1*List_Tree2" (list "Solution|Initialization"))
(cx-gui-do cx-set-list-selections "Solution Initialization*Table1*DropDownList1(Compute from)" '( 1))
(cx-gui-do cx-activate-item "Solution Initialization*Table1*DropDownList1(Compute from)")
(cx-gui-do cx-set-list-tree-selections "NavigationPane*Frame2*Table1*List_Tree2" (list "Setup|Boundary Conditions"))
(cx-gui-do cx-set-list-tree-selections "NavigationPane*Frame2*Table1*List_Tree2" (list "Setup|Boundary Conditions"))
(cx-gui-do cx-activate-item "NavigationPane*Frame2*Table1*List_Tree2")
(cx-gui-do cx-set-list-tree-selections "NavigationPane*Frame2*Table1*List_Tree2" (list "Setup|Boundary Conditions"))
(cx-gui-do cx-activate-item "Boundary Conditions*Table1*Table3*Table4*ButtonBox1*PushButton1(Edit)")
(cx-gui-do cx-set-list-selections "Velocity Inlet*Frame2*Frame2*Frame1(Momentum)*Table1*DropDownList6(Velocity Specification Method)" '( 2))
(cx-gui-do cx-enable-apply-button "Velocity Inlet")
(cx-gui-do cx-activate-item "Velocity Inlet*Frame2*Frame2*Frame1(Momentum)*Table1*DropDownList6(Velocity Specification Method)")
(cx-gui-do cx-activate-item "Velocity Inlet*PanelButtons*PushButton1(OK)")
(cx-gui-do cx-set-expression-entry "Velocity Inlet*Frame2*Frame2*Frame1(Momentum)*Table1*Table4(Turbulence)*ExpressionEntry12(Turbulent Viscosity Ratio)" '("10" . 0))
(cx-gui-do cx-set-expression-entry "Velocity Inlet*Frame2*Frame2*Frame1(Momentum)*Table1*Table4(Turbulence)*ExpressionEntry12(Turbulent Viscosity Ratio)" '("10" . 0))
(cx-gui-do cx-set-list-selections "Velocity Inlet*Frame2*Frame2*Frame1(Momentum)*Table1*Table4(Turbulence)*DropDownList1(Specification Method)" '( 3))
(cx-gui-do cx-enable-apply-button "Velocity Inlet")
(cx-gui-do cx-activate-item "Velocity Inlet*Frame2*Frame2*Frame1(Momentum)*Table1*Table4(Turbulence)*DropDownList1(Specification Method)")
(cx-gui-do cx-set-expression-entry "Velocity Inlet*Frame2*Frame2*Frame1(Momentum)*Table1*Table4(Turbulence)*ExpressionEntry11(Hydraulic Diameter)" '("1" . 0))
(cx-gui-do cx-set-expression-entry "Velocity Inlet*Frame2*Frame2*Frame1(Momentum)*Table1*Table4(Turbulence)*ExpressionEntry11(Hydraulic Diameter)" '("0.08" . 0))
(cx-gui-do cx-activate-item "Velocity Inlet*PanelButtons*PushButton1(OK)")
(cx-gui-do cx-activate-item "Velocity Inlet*PanelButtons*PushButton2(Cancel)")
(cx-gui-do cx-set-list-tree-selections "NavigationPane*Frame2*Table1*List_Tree2" (list "Solution|Initialization"))
(cx-gui-do cx-set-list-tree-selections "NavigationPane*Frame2*Table1*List_Tree2" (list "Solution|Initialization"))
(cx-gui-do cx-activate-item "NavigationPane*Frame2*Table1*List_Tree2")
(cx-gui-do cx-set-list-tree-selections "NavigationPane*Frame2*Table1*List_Tree2" (list "Solution|Initialization"))
(cx-gui-do cx-set-list-selections "Solution Initialization*Table1*DropDownList1(Compute from)" '( 1))
(cx-gui-do cx-activate-item "Solution Initialization*Table1*DropDownList1(Compute from)")
(cx-gui-do cx-activate-item "Solution Initialization*Table1*Frame9*PushButton1(Initialize)")
(cx-gui-do cx-set-list-tree-selections "NavigationPane*Frame2*Table1*List_Tree2" (list "Solution|Run Calculation"))
(cx-gui-do cx-set-list-tree-selections "NavigationPane*Frame2*Table1*List_Tree2" (list "Solution|Run Calculation"))
(cx-gui-do cx-activate-item "NavigationPane*Frame2*Table1*List_Tree2")
(cx-gui-do cx-set-list-tree-selections "NavigationPane*Frame2*Table1*List_Tree2" (list "Solution|Run Calculation"))
(cx-gui-do cx-set-integer-entry "Run Calculation*Table1*Table3(Parameters)*Table1*Table1*IntegerEntry1(Number of Iterations)" 1000)
(cx-gui-do cx-activate-item "Run Calculation*Table1*Table3(Parameters)*Table1*Table1*IntegerEntry1(Number of Iterations)")
(cx-gui-do cx-activate-item "Run Calculation*Table1*Table6(Solution Advancement)*Table1*PushButton1(Calculate)")


  iter  continuity  x-velocity  y-velocity           k     epsilon  report-def     time/iter

 turbulent viscosity limited to viscosity ratio of 1.000000e+05 in 51 cells 
     1  1.0000e+00  3.8755e-03  3.3383e-03  7.7031e-02  9.4329e+01  1.8585e+00  0:16:39  999

 Reversed flow on 2 faces (14.5% area) of pressure-outlet 4.

 Reversed flow on 50 faces (38.6% area) of pressure-inlet 5.
     2  9.8105e-01  8.8190e-04  5.6385e-04  1.0682e-02  1.8031e-01  1.9841e+00  0:13:18  998

 Reversed flow on 79 faces (29.6% area) of pressure-inlet 5.
     3  6.0363e-01  4.5556e-04  1.8911e-04  3.0486e-03  1.2398e-02  2.0074e+00  0:13:57  997

 Reversed flow on 83 faces (33.8% area) of pressure-inlet 5.
     4  7.5133e-01  3.9318e-04  1.9332e-04  1.1138e-03  4.0529e-03  2.0706e+00  0:11:09  996

 Reversed flow on 57 faces (25.1% area) of pressure-inlet 5.
     5  3.6736e-01  2.6426e-04  1.4684e-04  5.2652e-04  2.4495e-03  2.1043e+00  0:08:55  995

 Reversed flow on 1 face (7.5% area) of pressure-outlet 4.

 Reversed flow on 49 faces (19.4% area) of pressure-inlet 5.
     6  3.5551e-01  2.4462e-04  1.0855e-04  5.0682e-04  2.4130e-03  2.1500e+00  0:07:07  994

 Reversed flow on 1 face (7.5% area) of pressure-outlet 4.

 Reversed flow on 46 faces (14.4% area) of pressure-inlet 5.
     7  3.0690e-01  2.9793e-04  1.0423e-04  5.9120e-04  3.6898e-03  2.2063e+00  0:05:42  993

 Reversed flow on 1 face (7.5% area) of pressure-outlet 4.

 Reversed flow on 20 faces (8.5% area) of pressure-inlet 5.
     8  2.4982e-01  3.8169e-04  1.1190e-04  6.7924e-04  4.6776e-03  2.2748e+00  0:07:51  992

 Reversed flow on 1 face (7.5% area) of pressure-outlet 4.

 Reversed flow on 13 faces (5.7% area) of pressure-inlet 5.
     9  2.0147e-01  4.8343e-04  1.2568e-04  7.8242e-04  4.1301e-03  2.3641e+00  0:06:17  991

 Reversed flow on 1 face (7.5% area) of pressure-outlet 4.

 Reversed flow on 11 faces (4.6% area) of pressure-inlet 5.
    10  1.6582e-01  5.8148e-04  1.4657e-04  9.7904e-04  3.7781e-03  2.4891e+00  0:05:01  990

 Reversed flow on 1 face (7.5% area) of pressure-outlet 4.

 Reversed flow on 4 faces (4.2% area) of pressure-inlet 5.
    11  1.3741e-01  6.4218e-04  1.6192e-04  1.1480e-03  4.0952e-03  2.6660e+00  0:04:01  989

 Reversed flow on 1 face (7.5% area) of pressure-outlet 4.

 Reversed flow on 2 faces (2.1% area) of pressure-inlet 5.

  iter  continuity  x-velocity  y-velocity           k     epsilon  report-def     time/iter
    12  1.1195e-01  6.3683e-04  1.6053e-04  1.1023e-03  3.4784e-03  2.8737e+00  0:03:12  988

 Reversed flow on 2 faces (14.5% area) of pressure-outlet 4.

 Reversed flow on 1 face (1.1% area) of pressure-inlet 5.
    13  9.2252e-02  5.7113e-04  1.4269e-04  8.9680e-04  2.4552e-03  3.1245e+00  0:05:51  987

 Reversed flow on 2 faces (14.5% area) of pressure-outlet 4.
    14  7.7275e-02  4.7775e-04  1.1800e-04  6.9441e-04  1.6464e-03  3.3872e+00  0:04:41  986

 Reversed flow on 2 faces (14.5% area) of pressure-outlet 4.
    15  6.6212e-02  3.8763e-04  9.4766e-05  5.3041e-04  1.2921e-03  3.6222e+00  0:03:44  985

 Reversed flow on 2 faces (14.5% area) of pressure-outlet 4.
    16  5.7803e-02  3.1571e-04  7.5616e-05  3.9426e-04  9.6665e-04  3.8082e+00  0:02:59  984

 Reversed flow on 3 faces (20.9% area) of pressure-outlet 4.
    17  5.1693e-02  2.6159e-04  6.0737e-05  2.9197e-04  6.8767e-04  3.9427e+00  0:02:23  983

 Reversed flow on 3 faces (20.9% area) of pressure-outlet 4.
    18  4.6766e-02  2.2173e-04  4.9402e-05  2.2121e-04  5.1180e-04  4.0330e+00  0:01:54  982

 Reversed flow on 3 faces (20.9% area) of pressure-outlet 4.

 Reversed flow on 1 face (1.1% area) of pressure-inlet 5.
    19  4.2691e-02  1.9205e-04  4.1471e-05  1.7240e-04  4.1144e-04  4.0873e+00  0:04:48  981

 Reversed flow on 4 faces (26.8% area) of pressure-outlet 4.

 Reversed flow on 1 face (1.1% area) of pressure-inlet 5.
    20  3.8869e-02  1.6898e-04  3.5769e-05  1.3771e-04  3.2181e-04  4.1156e+00  0:03:50  980

 Reversed flow on 4 faces (26.8% area) of pressure-outlet 4.

 Reversed flow on 1 face (1.1% area) of pressure-inlet 5.
    21  3.6290e-02  1.5014e-04  3.1830e-05  1.1343e-04  2.4973e-04  4.1258e+00  0:03:04  979

 Reversed flow on 4 faces (26.8% area) of pressure-outlet 4.

 Reversed flow on 1 face (1.1% area) of pressure-inlet 5.
    22  3.4621e-02  1.3411e-04  2.9050e-05  9.6830e-05  2.0014e-04  4.1232e+00  0:02:27  978

 Reversed flow on 5 faces (32.3% area) of pressure-outlet 4.

 Reversed flow on 1 face (1.1% area) of pressure-inlet 5.

  iter  continuity  x-velocity  y-velocity           k     epsilon  report-def     time/iter
    23  3.2386e-02  1.2049e-04  2.6925e-05  8.4659e-05  1.7145e-04  4.1122e+00  0:01:57  977

 Reversed flow on 5 faces (32.3% area) of pressure-outlet 4.

 Reversed flow on 1 face (1.1% area) of pressure-inlet 5.
    24  3.0436e-02  1.0856e-04  2.5255e-05  7.6075e-05  1.4909e-04  4.0971e+00  0:04:49  976

 Reversed flow on 5 faces (32.3% area) of pressure-outlet 4.

 Reversed flow on 2 faces (2.1% area) of pressure-inlet 5.
    25  2.9244e-02  9.8119e-05  2.3720e-05  6.9547e-05  1.3307e-04  4.0792e+00  0:03:51  975

 Reversed flow on 6 faces (37.3% area) of pressure-outlet 4.

 Reversed flow on 2 faces (2.1% area) of pressure-inlet 5.
    26  2.7111e-02  8.8834e-05  2.2200e-05  6.4511e-05  1.1977e-04  4.0608e+00  0:03:05  974

 Reversed flow on 6 faces (37.3% area) of pressure-outlet 4.

 Reversed flow on 2 faces (2.1% area) of pressure-inlet 5.
    27  2.5081e-02  8.0782e-05  2.0736e-05  6.0219e-05  1.0960e-04  4.0425e+00  0:02:28  973

 Reversed flow on 6 faces (37.3% area) of pressure-outlet 4.

 Reversed flow on 3 faces (3.2% area) of pressure-inlet 5.
    28  2.3967e-02  7.3425e-05  1.9334e-05  5.6460e-05  1.0132e-04  4.0250e+00  0:01:58  972

 Reversed flow on 6 faces (37.3% area) of pressure-outlet 4.

 Reversed flow on 3 faces (3.2% area) of pressure-inlet 5.
    29  2.1972e-02  6.6796e-05  1.7886e-05  5.2822e-05  9.3608e-05  4.0082e+00  0:04:48  971

 Reversed flow on 7 faces (41.9% area) of pressure-outlet 4.

 Reversed flow on 4 faces (4.2% area) of pressure-inlet 5.
    30  2.0263e-02  6.1023e-05  1.6529e-05  4.9534e-05  8.6128e-05  3.9923e+00  0:03:50  970

 Reversed flow on 7 faces (41.9% area) of pressure-outlet 4.

 Reversed flow on 4 faces (4.2% area) of pressure-inlet 5.
    31  1.9065e-02  5.5724e-05  1.5256e-05  4.6489e-05  7.9112e-05  3.9775e+00  0:03:04  969

 Reversed flow on 7 faces (41.9% area) of pressure-outlet 4.

 Reversed flow on 4 faces (4.2% area) of pressure-inlet 5.
    32  1.7884e-02  5.0815e-05  1.3981e-05  4.3701e-05  7.2778e-05  3.9635e+00  0:02:27  968

 Reversed flow on 8 faces (46.2% area) of pressure-outlet 4.

 Reversed flow on 3 faces (3.2% area) of pressure-inlet 5.
    33  1.6602e-02  4.6553e-05  1.2794e-05  4.1205e-05  6.6968e-05  3.9503e+00  0:01:58  967

 Reversed flow on 8 faces (46.2% area) of pressure-outlet 4.

 Reversed flow on 4 faces (4.2% area) of pressure-inlet 5.

  iter  continuity  x-velocity  y-velocity           k     epsilon  report-def     time/iter
    34  1.5344e-02  4.2813e-05  1.1738e-05  3.9020e-05  6.1830e-05  3.9377e+00  0:01:34  966

 Reversed flow on 8 faces (46.2% area) of pressure-outlet 4.

 Reversed flow on 4 faces (4.2% area) of pressure-inlet 5.
    35  1.4558e-02  3.9446e-05  1.0773e-05  3.7187e-05  5.7416e-05  3.9258e+00  0:04:28  965

 Reversed flow on 8 faces (46.2% area) of pressure-outlet 4.

 Reversed flow on 4 faces (4.2% area) of pressure-inlet 5.
    36  1.3774e-02  3.6281e-05  9.8882e-06  3.5640e-05  5.3579e-05  3.9143e+00  0:03:34  964

 Reversed flow on 9 faces (50.1% area) of pressure-outlet 4.

 Reversed flow on 4 faces (4.2% area) of pressure-inlet 5.
    37  1.2943e-02  3.3560e-05  9.0895e-06  3.4274e-05  5.0273e-05  3.9033e+00  0:02:51  963

 Reversed flow on 9 faces (50.1% area) of pressure-outlet 4.

 Reversed flow on 4 faces (4.2% area) of pressure-inlet 5.
    38  1.2161e-02  3.1257e-05  8.4030e-06  3.3097e-05  4.7411e-05  3.8929e+00  0:02:17  962

 Reversed flow on 9 faces (50.1% area) of pressure-outlet 4.

 Reversed flow on 3 faces (3.2% area) of pressure-inlet 5.
    39  1.1435e-02  2.9199e-05  7.7823e-06  3.2091e-05  4.4817e-05  3.8826e+00  0:01:49  961

 Reversed flow on 9 faces (50.1% area) of pressure-outlet 4.

 Reversed flow on 4 faces (4.2% area) of pressure-inlet 5.
    40  1.0990e-02  2.7177e-05  7.1973e-06  3.1165e-05  4.2542e-05  3.8728e+00  0:04:39  960

 Reversed flow on 9 faces (50.1% area) of pressure-outlet 4.

 Reversed flow on 4 faces (4.2% area) of pressure-inlet 5.
    41  1.0451e-02  2.5248e-05  6.6647e-06  3.0265e-05  4.0454e-05  3.8634e+00  0:03:43  959

 Reversed flow on 10 faces (53.7% area) of pressure-outlet 4.

 Reversed flow on 4 faces (4.2% area) of pressure-inlet 5.
    42  9.9981e-03  2.3618e-05  6.2024e-06  2.9347e-05  3.8446e-05  3.8542e+00  0:02:58  958

 Reversed flow on 10 faces (53.7% area) of pressure-outlet 4.

 Reversed flow on 4 faces (4.2% area) of pressure-inlet 5.
    43  9.3709e-03  2.2259e-05  5.7611e-06  2.8480e-05  3.6567e-05  3.8454e+00  0:02:23  957

 Reversed flow on 10 faces (53.7% area) of pressure-outlet 4.

 Reversed flow on 4 faces (4.2% area) of pressure-inlet 5.
    44  9.0333e-03  2.1008e-05  5.3826e-06  2.7692e-05  3.4846e-05  3.8368e+00  0:01:54  956

 Reversed flow on 10 faces (53.7% area) of pressure-outlet 4.

 Reversed flow on 4 faces (4.2% area) of pressure-inlet 5.

  iter  continuity  x-velocity  y-velocity           k     epsilon  report-def     time/iter
    45  8.6329e-03  1.9760e-05  5.0392e-06  2.6800e-05  3.3228e-05  3.8285e+00  0:01:31  955

 Reversed flow on 11 faces (57.1% area) of pressure-outlet 4.

 Reversed flow on 4 faces (4.2% area) of pressure-inlet 5.
    46  8.3564e-03  1.8520e-05  4.7313e-06  2.5809e-05  3.1664e-05  3.8204e+00  0:04:24  954

 Reversed flow on 11 faces (57.1% area) of pressure-outlet 4.

 Reversed flow on 3 faces (3.2% area) of pressure-inlet 5.
    47  7.7232e-03  1.7394e-05  4.4186e-06  2.4781e-05  3.0145e-05  3.8126e+00  0:03:31  953

 Reversed flow on 11 faces (57.1% area) of pressure-outlet 4.

 Reversed flow on 3 faces (3.2% area) of pressure-inlet 5.
    48  7.4701e-03  1.6343e-05  4.1572e-06  2.3767e-05  2.8686e-05  3.8050e+00  0:02:48  952

 Reversed flow on 12 faces (60.2% area) of pressure-outlet 4.

 Reversed flow on 4 faces (4.2% area) of pressure-inlet 5.
    49  7.1917e-03  1.5441e-05  3.9141e-06  2.2863e-05  2.7318e-05  3.7977e+00  0:02:15  951

 Reversed flow on 12 faces (60.2% area) of pressure-outlet 4.

 Reversed flow on 4 faces (4.2% area) of pressure-inlet 5.
    50  6.8892e-03  1.4583e-05  3.7140e-06  2.1890e-05  2.6008e-05  3.7906e+00  0:01:48  950

 Reversed flow on 12 faces (60.2% area) of pressure-outlet 4.

 Reversed flow on 4 faces (4.2% area) of pressure-inlet 5.
    51  6.4709e-03  1.3713e-05  3.5629e-06  2.0799e-05  2.4736e-05  3.7838e+00  0:04:36  949

 Reversed flow on 12 faces (60.2% area) of pressure-outlet 4.

 Reversed flow on 3 faces (3.2% area) of pressure-inlet 5.
    52  6.1801e-03  1.2844e-05  3.4550e-06  1.9686e-05  2.3517e-05  3.7772e+00  0:03:40  948

 Reversed flow on 13 faces (63.0% area) of pressure-outlet 4.

 Reversed flow on 3 faces (3.2% area) of pressure-inlet 5.
    53  5.8493e-03  1.2080e-05  3.3840e-06  1.8583e-05  2.2332e-05  3.7709e+00  0:02:56  947

 Reversed flow on 13 faces (63.0% area) of pressure-outlet 4.

 Reversed flow on 3 faces (3.2% area) of pressure-inlet 5.
    54  5.6462e-03  1.1407e-05  3.3407e-06  1.7499e-05  2.1205e-05  3.7649e+00  0:02:21  946

 Reversed flow on 13 faces (63.0% area) of pressure-outlet 4.

 Reversed flow on 3 faces (3.2% area) of pressure-inlet 5.
    55  5.7416e-03  1.0781e-05  3.2913e-06  1.6568e-05  2.0158e-05  3.7590e+00  0:01:52  945

 Reversed flow on 13 faces (63.0% area) of pressure-outlet 4.

 Reversed flow on 3 faces (3.2% area) of pressure-inlet 5.

  iter  continuity  x-velocity  y-velocity           k     epsilon  report-def     time/iter
    56  5.7009e-03  1.0178e-05  3.2201e-06  1.5653e-05  1.9167e-05  3.7535e+00  0:04:39  944

 Reversed flow on 13 faces (63.0% area) of pressure-outlet 4.

 Reversed flow on 3 faces (3.2% area) of pressure-inlet 5.
    57  5.5338e-03  9.5771e-06  3.1265e-06  1.4702e-05  1.8214e-05  3.7481e+00  0:03:43  943

 Reversed flow on 13 faces (63.0% area) of pressure-outlet 4.

 Reversed flow on 2 faces (2.1% area) of pressure-inlet 5.
    58  5.4529e-03  9.0262e-06  3.0850e-06  1.3743e-05  1.7305e-05  3.7431e+00  0:02:58  942

 Reversed flow on 13 faces (63.0% area) of pressure-outlet 4.

 Reversed flow on 2 faces (2.1% area) of pressure-inlet 5.
    59  5.2860e-03  8.5313e-06  3.0774e-06  1.2861e-05  1.6459e-05  3.7382e+00  0:02:22  941

 Reversed flow on 13 faces (63.0% area) of pressure-outlet 4.

 Reversed flow on 2 faces (2.1% area) of pressure-inlet 5.
    60  5.1723e-03  8.0993e-06  3.0571e-06  1.2108e-05  1.5698e-05  3.7337e+00  0:01:54  940

 Reversed flow on 13 faces (63.0% area) of pressure-outlet 4.

 Reversed flow on 2 faces (2.1% area) of pressure-inlet 5.
    61  5.1893e-03  7.7113e-06  2.9889e-06  1.1397e-05  1.4999e-05  3.7293e+00  0:01:31  939

 Reversed flow on 13 faces (63.0% area) of pressure-outlet 4.

 Reversed flow on 2 faces (2.1% area) of pressure-inlet 5.
    62  5.0725e-03  7.3246e-06  2.8837e-06  1.0756e-05  1.4359e-05  3.7252e+00  0:04:20  938

 Reversed flow on 13 faces (63.0% area) of pressure-outlet 4.

 Reversed flow on 2 faces (2.1% area) of pressure-inlet 5.
    63  4.8838e-03  6.9309e-06  2.7740e-06  1.0208e-05  1.3788e-05  3.7213e+00  0:03:28  937

 Reversed flow on 13 faces (63.0% area) of pressure-outlet 4.

 Reversed flow on 2 faces (2.1% area) of pressure-inlet 5.
    64  4.7117e-03  6.5652e-06  2.6809e-06  9.6981e-06  1.3264e-05  3.7175e+00  0:02:46  936

 Reversed flow on 13 faces (63.0% area) of pressure-outlet 4.

 Reversed flow on 1 face (1.1% area) of pressure-inlet 5.
    65  4.4954e-03  6.2365e-06  2.6229e-06  9.2067e-06  1.2767e-05  3.7139e+00  0:02:13  935

 Reversed flow on 13 faces (63.0% area) of pressure-outlet 4.

 Reversed flow on 1 face (1.1% area) of pressure-inlet 5.
    66  4.2829e-03  5.9811e-06  2.5841e-06  8.7768e-06  1.2299e-05  3.7105e+00  0:01:46  934

 Reversed flow on 13 faces (63.0% area) of pressure-outlet 4.

 Reversed flow on 1 face (1.1% area) of pressure-inlet 5.

  iter  continuity  x-velocity  y-velocity           k     epsilon  report-def     time/iter
    67  4.1922e-03  5.7438e-06  2.5529e-06  8.4681e-06  1.1877e-05  3.7072e+00  0:04:31  933

 Reversed flow on 13 faces (63.0% area) of pressure-outlet 4.

 Reversed flow on 1 face (1.1% area) of pressure-inlet 5.
    68  4.0238e-03  5.5237e-06  2.4953e-06  8.0951e-06  1.1487e-05  3.7040e+00  0:03:37  932

 Reversed flow on 13 faces (63.0% area) of pressure-outlet 4.

 Reversed flow on 1 face (1.1% area) of pressure-inlet 5.
    69  3.8286e-03  5.2886e-06  2.4228e-06  7.6699e-06  1.1099e-05  3.7009e+00  0:02:53  931

 Reversed flow on 13 faces (63.0% area) of pressure-outlet 4.

 Reversed flow on 1 face (1.1% area) of pressure-inlet 5.
    70  3.6975e-03  5.0353e-06  2.3253e-06  7.2445e-06  1.0726e-05  3.6979e+00  0:02:19  930

 Reversed flow on 13 faces (63.0% area) of pressure-outlet 4.

 Reversed flow on 1 face (1.1% area) of pressure-inlet 5.
    71  3.5699e-03  4.7903e-06  2.2456e-06  6.8550e-06  1.0375e-05  3.6951e+00  0:04:56  929

 Reversed flow on 13 faces (63.0% area) of pressure-outlet 4.

 Reversed flow on 1 face (1.1% area) of pressure-inlet 5.
    72  3.4107e-03  4.5751e-06  2.1706e-06  6.5324e-06  1.0053e-05  3.6924e+00  0:03:57  928

 Reversed flow on 13 faces (63.0% area) of pressure-outlet 4.

 Reversed flow on 1 face (1.1% area) of pressure-inlet 5.
    73  3.2494e-03  4.3813e-06  2.0826e-06  6.3624e-06  9.7667e-06  3.6898e+00  0:03:09  927

 Reversed flow on 12 faces (60.2% area) of pressure-outlet 4.

 Reversed flow on 1 face (1.1% area) of pressure-inlet 5.
    74  3.2226e-03  4.4026e-06  2.0738e-06  6.0521e-06  9.4553e-06  3.6872e+00  0:02:31  926

 Reversed flow on 12 faces (60.2% area) of pressure-outlet 4.

 Reversed flow on 1 face (1.1% area) of pressure-inlet 5.
    75  3.0630e-03  4.1976e-06  2.0134e-06  5.6818e-06  9.1394e-06  3.6847e+00  0:02:01  925

 Reversed flow on 12 faces (60.2% area) of pressure-outlet 4.

 Reversed flow on 1 face (1.1% area) of pressure-inlet 5.
    76  2.9380e-03  3.9766e-06  1.9251e-06  5.3554e-06  8.8394e-06  3.6824e+00  0:01:37  924

 Reversed flow on 12 faces (60.2% area) of pressure-outlet 4.

 Reversed flow on 1 face (1.1% area) of pressure-inlet 5.
    77  2.8298e-03  3.7747e-06  1.8282e-06  5.0732e-06  8.5549e-06  3.6801e+00  0:04:22  923

 Reversed flow on 12 faces (60.2% area) of pressure-outlet 4.

 Reversed flow on 1 face (1.1% area) of pressure-inlet 5.

  iter  continuity  x-velocity  y-velocity           k     epsilon  report-def     time/iter
    78  2.7511e-03  3.5941e-06  1.7332e-06  4.8481e-06  8.2816e-06  3.6780e+00  0:03:29  922

 Reversed flow on 12 faces (60.2% area) of pressure-outlet 4.

 Reversed flow on 1 face (1.1% area) of pressure-inlet 5.
    79  2.6250e-03  3.4287e-06  1.6351e-06  4.6497e-06  8.0165e-06  3.6759e+00  0:02:47  921

 Reversed flow on 12 faces (60.2% area) of pressure-outlet 4.

 Reversed flow on 1 face (1.1% area) of pressure-inlet 5.
    80  2.4818e-03  3.2721e-06  1.5470e-06  4.4637e-06  7.7602e-06  3.6738e+00  0:02:14  920

 Reversed flow on 12 faces (60.2% area) of pressure-outlet 4.

 Reversed flow on 1 face (1.1% area) of pressure-inlet 5.
    81  2.3006e-03  3.1218e-06  1.4709e-06  4.2893e-06  7.5084e-06  3.6719e+00  0:04:51  919

 Reversed flow on 12 faces (60.2% area) of pressure-outlet 4.

 Reversed flow on 1 face (1.1% area) of pressure-inlet 5.
    82  2.2040e-03  2.9803e-06  1.4034e-06  4.2227e-06  7.5862e-06  3.6696e+00  0:03:52  918

 Reversed flow on 12 faces (60.2% area) of pressure-outlet 4.

 Reversed flow on 1 face (1.1% area) of pressure-inlet 5.
    83  2.0971e-03  2.8263e-06  1.3362e-06  4.0170e-06  7.1482e-06  3.6677e+00  0:03:06  917

 Reversed flow on 12 faces (60.2% area) of pressure-outlet 4.

 Reversed flow on 1 face (1.1% area) of pressure-inlet 5.
    84  1.9920e-03  2.6963e-06  1.2664e-06  3.9289e-06  7.0550e-06  3.6657e+00  0:02:28  916

 Reversed flow on 12 faces (60.2% area) of pressure-outlet 4.

 Reversed flow on 1 face (1.1% area) of pressure-inlet 5.
    85  1.8999e-03  2.5581e-06  1.2048e-06  3.7273e-06  6.6206e-06  3.6641e+00  0:01:59  915

 Reversed flow on 12 faces (60.2% area) of pressure-outlet 4.

 Reversed flow on 1 face (1.1% area) of pressure-inlet 5.
    86  1.8751e-03  2.4527e-06  1.1482e-06  3.6314e-06  6.4810e-06  3.6622e+00  0:04:37  914

 Reversed flow on 12 faces (60.2% area) of pressure-outlet 4.

 Reversed flow on 1 face (1.1% area) of pressure-inlet 5.
    87  1.7123e-03  2.3362e-06  1.0924e-06  3.5033e-06  6.2829e-06  3.6604e+00  0:03:42  913

 Reversed flow on 12 faces (60.2% area) of pressure-outlet 4.
    88  1.6344e-03  2.2270e-06  1.0399e-06  3.3592e-06  6.0136e-06  3.6587e+00  0:02:57  912

 Reversed flow on 12 faces (60.2% area) of pressure-outlet 4.

  iter  continuity  x-velocity  y-velocity           k     epsilon  report-def     time/iter
    89  1.5740e-03  2.1201e-06  9.8688e-07  3.1480e-06  5.5429e-06  3.6573e+00  0:02:22  911

 Reversed flow on 12 faces (60.2% area) of pressure-outlet 4.
    90  1.4779e-03  2.0386e-06  9.3469e-07  3.0364e-06  5.4059e-06  3.6558e+00  0:01:53  910

 Reversed flow on 12 faces (60.2% area) of pressure-outlet 4.
    91  1.4024e-03  1.9475e-06  8.9311e-07  2.9071e-06  5.2463e-06  3.6544e+00  0:04:32  909

 Reversed flow on 12 faces (60.2% area) of pressure-outlet 4.
    92  1.3493e-03  1.8616e-06  8.5400e-07  2.7717e-06  5.0019e-06  3.6530e+00  0:03:38  908

 Reversed flow on 12 faces (60.2% area) of pressure-outlet 4.
    93  1.2616e-03  1.7753e-06  8.1453e-07  2.6388e-06  4.7831e-06  3.6517e+00  0:02:54  907

 Reversed flow on 12 faces (60.2% area) of pressure-outlet 4.
    94  1.2036e-03  1.6939e-06  7.7836e-07  2.5064e-06  4.5767e-06  3.6505e+00  0:02:19  906

 Reversed flow on 12 faces (60.2% area) of pressure-outlet 4.
    95  1.1458e-03  1.6168e-06  7.4372e-07  2.3776e-06  4.3592e-06  3.6493e+00  0:01:51  905

 Reversed flow on 12 faces (60.2% area) of pressure-outlet 4.
    96  1.1067e-03  1.5432e-06  7.1130e-07  2.2540e-06  4.1581e-06  3.6483e+00  0:04:30  904

 Reversed flow on 12 faces (60.2% area) of pressure-outlet 4.
    97  1.0401e-03  1.4726e-06  6.7850e-07  2.1364e-06  3.9721e-06  3.6473e+00  0:03:35  903

 Reversed flow on 12 faces (60.2% area) of pressure-outlet 4.
    98  9.9492e-04  1.4055e-06  6.5026e-07  2.0249e-06  3.7942e-06  3.6463e+00  0:02:52  902

 Reversed flow on 12 faces (60.2% area) of pressure-outlet 4.
    99  9.5623e-04  1.3421e-06  6.2235e-07  1.9201e-06  3.6282e-06  3.6454e+00  0:02:18  901

 Reversed flow on 12 faces (60.2% area) of pressure-outlet 4.

  iter  continuity  x-velocity  y-velocity           k     epsilon  report-def     time/iter
   100  9.0226e-04  1.2814e-06  5.9436e-07  1.8220e-06  3.4718e-06  3.6446e+00  0:01:50  900

 Reversed flow on 12 faces (60.2% area) of pressure-outlet 4.
   101  8.7711e-04  1.2239e-06  5.6977e-07  1.7297e-06  3.3233e-06  3.6438e+00  0:04:28  899

 Reversed flow on 12 faces (60.2% area) of pressure-outlet 4.
   102  8.4135e-04  1.1697e-06  5.4654e-07  1.6416e-06  3.1817e-06  3.6430e+00  0:03:34  898

 Reversed flow on 12 faces (60.2% area) of pressure-outlet 4.

 Reversed flow on 1 face (1.1% area) of pressure-inlet 5.
   103  8.1231e-04  1.1179e-06  5.2451e-07  1.5231e-06  2.9525e-06  3.6424e+00  0:02:51  897

 Reversed flow on 12 faces (60.2% area) of pressure-outlet 4.
   104  7.6462e-04  1.0782e-06  5.0098e-07  1.4715e-06  2.8885e-06  3.6417e+00  0:02:17  896

 Reversed flow on 12 faces (60.2% area) of pressure-outlet 4.
   105  7.3447e-04  1.0329e-06  4.8252e-07  1.4117e-06  2.8252e-06  3.6411e+00  0:01:49  895

 Reversed flow on 12 faces (60.2% area) of pressure-outlet 4.
   106  7.1654e-04  9.8843e-07  4.6493e-07  1.3488e-06  2.7120e-06  3.6404e+00  0:04:26  894

 Reversed flow on 12 faces (60.2% area) of pressure-outlet 4.
   107  6.7346e-04  9.4360e-07  4.4684e-07  1.2872e-06  2.6065e-06  3.6398e+00  0:03:33  893

 Reversed flow on 12 faces (60.2% area) of pressure-outlet 4.
   108  6.4429e-04  9.0193e-07  4.3150e-07  1.1953e-06  2.4233e-06  3.6394e+00  0:02:50  892

 Reversed flow on 12 faces (60.2% area) of pressure-outlet 4.
   109  6.2987e-04  8.7016e-07  4.1504e-07  1.1581e-06  2.3705e-06  3.6388e+00  0:02:16  891

 Reversed flow on 12 faces (60.2% area) of pressure-outlet 4.
   110  5.9359e-04  8.3466e-07  3.9955e-07  1.1138e-06  2.3201e-06  3.6383e+00  0:01:48  890

 Reversed flow on 12 faces (60.2% area) of pressure-outlet 4.

  iter  continuity  x-velocity  y-velocity           k     epsilon  report-def     time/iter
   111  5.7119e-04  7.9937e-07  3.8724e-07  1.0665e-06  2.2303e-06  3.6378e+00  0:01:27  889

 Reversed flow on 12 faces (60.2% area) of pressure-outlet 4.
   112  5.4968e-04  7.6502e-07  3.7453e-07  9.9309e-07  2.0698e-06  3.6374e+00  0:04:07  888

 Reversed flow on 12 faces (60.2% area) of pressure-outlet 4.
   113  5.4628e-04  7.3982e-07  3.6062e-07  9.6592e-07  2.0397e-06  3.6370e+00  0:03:17  887

 Reversed flow on 12 faces (60.2% area) of pressure-outlet 4.
   114  5.1748e-04  7.1205e-07  3.4769e-07  9.3117e-07  1.9980e-06  3.6365e+00  0:02:38  886

 Reversed flow on 12 faces (60.2% area) of pressure-outlet 4.
   115  4.9964e-04  6.8453e-07  3.3765e-07  8.6877e-07  1.8475e-06  3.6362e+00  0:02:06  885

 Reversed flow on 12 faces (60.2% area) of pressure-outlet 4.
   116  4.9521e-04  6.6266e-07  3.2640e-07  8.4856e-07  1.8299e-06  3.6358e+00  0:01:41  884

 Reversed flow on 12 faces (60.2% area) of pressure-outlet 4.
   117  4.7153e-04  6.3931e-07  3.1549e-07  7.9693e-07  1.7336e-06  3.6355e+00  0:04:17  883

 Reversed flow on 12 faces (60.2% area) of pressure-outlet 4.
   118  4.6026e-04  6.2132e-07  3.0634e-07  7.8061e-07  1.7052e-06  3.6351e+00  0:03:25  882

 Reversed flow on 12 faces (60.2% area) of pressure-outlet 4.
   119  4.4749e-04  5.9962e-07  2.9827e-07  7.3445e-07  1.6102e-06  3.6348e+00  0:02:44  881

 Reversed flow on 12 faces (60.2% area) of pressure-outlet 4.

 Reversed flow on 1 face (1.1% area) of pressure-inlet 5.
   120  4.4531e-04  5.8299e-07  2.8903e-07  7.2057e-07  1.5978e-06  3.6345e+00  0:02:11  880

 Reversed flow on 12 faces (60.2% area) of pressure-outlet 4.
   121  4.2137e-04  5.6303e-07  2.8058e-07  6.7771e-07  1.5074e-06  3.6342e+00  0:01:45  879

 Reversed flow on 12 faces (60.2% area) of pressure-outlet 4.

  iter  continuity  x-velocity  y-velocity           k     epsilon  report-def     time/iter
   122  4.1098e-04  5.4751e-07  2.7329e-07  6.4423e-07  1.4282e-06  3.6340e+00  0:04:19  878

 Reversed flow on 12 faces (60.2% area) of pressure-outlet 4.
   123  4.0893e-04  5.3325e-07  2.6590e-07  6.3790e-07  1.4483e-06  3.6337e+00  0:03:27  877

 Reversed flow on 12 faces (60.2% area) of pressure-outlet 4.
   124  3.8964e-04  5.1705e-07  2.5917e-07  6.0078e-07  1.3701e-06  3.6334e+00  0:02:46  876

 Reversed flow on 12 faces (60.2% area) of pressure-outlet 4.
   125  3.8165e-04  5.0310e-07  2.5309e-07  5.7263e-07  1.2984e-06  3.6332e+00  0:02:12  875

 Reversed flow on 12 faces (60.2% area) of pressure-outlet 4.
   126  3.7358e-04  4.8993e-07  2.4655e-07  5.4993e-07  1.2613e-06  3.6330e+00  0:01:46  874

 Reversed flow on 12 faces (60.2% area) of pressure-outlet 4.

 Reversed flow on 1 face (1.1% area) of pressure-inlet 5.
   127  3.7200e-04  4.7882e-07  2.4022e-07  5.2868e-07  1.2238e-06  3.6328e+00  0:04:19  873

 Reversed flow on 12 faces (60.2% area) of pressure-outlet 4.
   128  3.5482e-04  4.6756e-07  2.3396e-07  5.0956e-07  1.1808e-06  3.6325e+00  0:03:27  872

 Reversed flow on 12 faces (60.2% area) of pressure-outlet 4.
   129  3.4720e-04  4.5625e-07  2.2941e-07  4.9160e-07  1.1511e-06  3.6323e+00  0:02:45  871

 Reversed flow on 12 faces (60.2% area) of pressure-outlet 4.
   130  3.4666e-04  4.4548e-07  2.2456e-07  4.7460e-07  1.1217e-06  3.6321e+00  0:02:12  870

 Reversed flow on 12 faces (60.2% area) of pressure-outlet 4.
   131  3.3105e-04  4.3479e-07  2.1883e-07  4.5748e-07  1.0877e-06  3.6320e+00  0:01:46  869

 Reversed flow on 12 faces (60.2% area) of pressure-outlet 4.
   132  3.2328e-04  4.2391e-07  2.1466e-07  4.4070e-07  1.0570e-06  3.6318e+00  0:04:18  868

 Reversed flow on 12 faces (60.2% area) of pressure-outlet 4.

  iter  continuity  x-velocity  y-velocity           k     epsilon  report-def     time/iter
   133  3.1662e-04  4.1351e-07  2.1026e-07  4.2422e-07  1.0265e-06  3.6316e+00  0:03:26  867

 Reversed flow on 12 faces (60.2% area) of pressure-outlet 4.

 Reversed flow on 1 face (1.1% area) of pressure-inlet 5.
   134  3.1687e-04  4.0391e-07  2.0573e-07  4.0791e-07  9.9494e-07  3.6314e+00  0:02:45  866

 Reversed flow on 12 faces (60.2% area) of pressure-outlet 4.
   135  3.0244e-04  3.9478e-07  2.0086e-07  3.9176e-07  9.6445e-07  3.6313e+00  0:02:12  865

 Reversed flow on 12 faces (60.2% area) of pressure-outlet 4.
   136  2.9537e-04  3.8597e-07  1.9747e-07  3.7611e-07  9.3501e-07  3.6311e+00  0:01:45  864

 Reversed flow on 12 faces (60.2% area) of pressure-outlet 4.
   137  2.9486e-04  3.7791e-07  1.9368e-07  3.6094e-07  9.0583e-07  3.6310e+00  0:04:17  863

 Reversed flow on 12 faces (60.2% area) of pressure-outlet 4.
   138  2.8151e-04  3.6988e-07  1.8905e-07  3.4639e-07  8.7753e-07  3.6308e+00  0:03:25  862

 Reversed flow on 12 faces (60.2% area) of pressure-outlet 4.
   139  2.7508e-04  3.6203e-07  1.8615e-07  3.3228e-07  8.5055e-07  3.6307e+00  0:05:36  861

 Reversed flow on 12 faces (60.2% area) of pressure-outlet 4.
   140  2.6888e-04  3.5432e-07  1.8309e-07  3.1869e-07  8.2438e-07  3.6306e+00  0:04:29  860

 Reversed flow on 12 faces (60.2% area) of pressure-outlet 4.

 Reversed flow on 1 face (1.1% area) of pressure-inlet 5.
   141  2.6956e-04  3.4692e-07  1.7977e-07  3.0554e-07  7.9922e-07  3.6304e+00  0:03:35  859

 Reversed flow on 12 faces (60.2% area) of pressure-outlet 4.
   142  2.5698e-04  3.3971e-07  1.7591e-07  2.9319e-07  7.7539e-07  3.6303e+00  0:02:51  858

 Reversed flow on 12 faces (60.2% area) of pressure-outlet 4.
   143  2.5165e-04  3.3255e-07  1.7340e-07  2.8134e-07  7.5213e-07  3.6302e+00  0:02:17  857

 Reversed flow on 12 faces (60.2% area) of pressure-outlet 4.

  iter  continuity  x-velocity  y-velocity           k     epsilon  report-def     time/iter
   144  2.5109e-04  3.2571e-07  1.7083e-07  2.7024e-07  7.2977e-07  3.6301e+00  0:01:49  856

 Reversed flow on 12 faces (60.2% area) of pressure-outlet 4.
   145  2.3996e-04  3.1880e-07  1.6737e-07  2.5966e-07  7.0804e-07  3.6300e+00  0:04:18  855

 Reversed flow on 12 faces (60.2% area) of pressure-outlet 4.
   146  2.3565e-04  3.1198e-07  1.6535e-07  2.4975e-07  6.8734e-07  3.6299e+00  0:03:27  854

 Reversed flow on 12 faces (60.2% area) of pressure-outlet 4.
   147  2.3100e-04  3.0525e-07  1.6316e-07  2.4060e-07  6.6745e-07  3.6298e+00  0:02:45  853

 Reversed flow on 12 faces (60.2% area) of pressure-outlet 4.

 Reversed flow on 1 face (1.1% area) of pressure-inlet 5.
   148  2.3139e-04  2.9869e-07  1.6072e-07  2.3235e-07  6.4838e-07  3.6297e+00  0:02:12  852

 Reversed flow on 12 faces (60.2% area) of pressure-outlet 4.
   149  2.1994e-04  2.9214e-07  1.5760e-07  2.2516e-07  6.3023e-07  3.6296e+00  0:01:45  851

 Reversed flow on 12 faces (60.2% area) of pressure-outlet 4.
   150  2.1483e-04  2.8551e-07  1.5579e-07  2.1921e-07  6.1298e-07  3.6296e+00  0:04:14  850

 Reversed flow on 12 faces (60.2% area) of pressure-outlet 4.
   151  2.1040e-04  2.7892e-07  1.5372e-07  2.1501e-07  5.9678e-07  3.6295e+00  0:03:23  849

 Reversed flow on 12 faces (60.2% area) of pressure-outlet 4.

 Reversed flow on 1 face (1.1% area) of pressure-inlet 5.
   152  2.1090e-04  2.7249e-07  1.5139e-07  2.1227e-07  5.8155e-07  3.6294e+00  0:02:42  848

 Reversed flow on 12 faces (60.2% area) of pressure-outlet 4.
[...]
(cx-gui-do cx-activate-item "Contours*PanelButtons*PushButton2(Cancel)")
(cx-gui-do cx-set-list-tree-selections "NavigationPane*Frame2*Table1*List_Tree2" (list "Results|Graphics|Contours|contour-vitesse"))
(cx-gui-do cx-set-list-tree-selections "NavigationPane*Frame2*Table1*List_Tree2" (list "Results|Graphics|Contours|contour-vitesse"))
(cx-gui-do cx-activate-item "NavigationPane*Frame2*Table1*List_Tree2")
(cx-gui-do cx-set-list-tree-selections "NavigationPane*Frame2*Table1*List_Tree2" (list "Results|Graphics|Contours|contour-vitesse"))
(cx-gui-do cx-activate-item "Contours*PanelButtons*PushButton1(OK)")
(cx-gui-do cx-activate-item "Contours*PanelButtons*PushButton2(Cancel)")
(cx-gui-do cx-set-list-tree-selections "NavigationPane*Frame2*Table1*List_Tree2" (list "Results|Graphics|Contours|contour-pression"))
(cx-gui-do cx-set-list-tree-selections "NavigationPane*Frame2*Table1*List_Tree2" (list "Results|Graphics|Contours|contour-pression"))
(cx-gui-do cx-activate-item "NavigationPane*Frame2*Table1*List_Tree2")
(cx-gui-do cx-set-list-tree-selections "NavigationPane*Frame2*Table1*List_Tree2" (list "Results|Graphics|Contours|contour-pression"))
(cx-gui-do cx-activate-item "Contours*PanelButtons*PushButton1(OK)")
(cx-gui-do cx-activate-item "Contours*PanelButtons*PushButton2(Cancel)")
(cx-gui-do cx-set-list-tree-selections "NavigationPane*Frame2*Table1*List_Tree2" (list "Results|Graphics|Contours|contour-vitesse"))
(cx-gui-do cx-set-list-tree-selections "NavigationPane*Frame2*Table1*List_Tree2" (list "Results|Graphics|Contours|contour-vitesse"))
(cx-gui-do cx-activate-item "NavigationPane*Frame2*Table1*List_Tree2")
(cx-gui-do cx-set-list-tree-selections "NavigationPane*Frame2*Table1*List_Tree2" (list "Results|Graphics|Contours|contour-vitesse"))
(cx-gui-do cx-activate-item "Contours*PanelButtons*PushButton1(OK)")
(cx-gui-do cx-activate-item "Contours*PanelButtons*PushButton2(Cancel)")
(cx-gui-do cx-set-list-tree-selections "NavigationPane*Frame2*Table1*List_Tree2" (list "Results|Graphics|Contours|contour-kinecticenergy"))
(cx-gui-do cx-set-list-tree-selections "NavigationPane*Frame2*Table1*List_Tree2" (list "Results|Graphics|Contours|contour-kinecticenergy"))
(cx-gui-do cx-activate-item "NavigationPane*Frame2*Table1*List_Tree2")
(cx-gui-do cx-set-list-tree-selections "NavigationPane*Frame2*Table1*List_Tree2" (list "Results|Graphics|Contours|contour-kinecticenergy"))
(cx-gui-do cx-activate-item "Contours*PanelButtons*PushButton1(OK)")
(cx-gui-do cx-activate-item "Contours*PanelButtons*PushButton2(Cancel)")
(cx-gui-do cx-set-list-tree-selections "NavigationPane*Frame2*Table1*List_Tree2" (list "Results|Graphics|Contours|contour-pression"))
(cx-gui-do cx-set-list-tree-selections "NavigationPane*Frame2*Table1*List_Tree2" (list "Results|Graphics|Contours|contour-pression"))
(cx-gui-do cx-activate-item "NavigationPane*Frame2*Table1*List_Tree2")
(cx-gui-do cx-set-list-tree-selections "NavigationPane*Frame2*Table1*List_Tree2" (list "Results|Graphics|Contours|contour-pression"))
(cx-gui-do cx-activate-item "Contours*PanelButtons*PushButton1(OK)")
(cx-gui-do cx-activate-item "Contours*PanelButtons*PushButton2(Cancel)")
(cx-gui-do cx-set-list-tree-selections "NavigationPane*Frame2*Table1*List_Tree2" (list "Results|Plots|XY Plot"))
(cx-gui-do cx-set-list-tree-selections "NavigationPane*Frame2*Table1*List_Tree2" (list "Results|Plots|XY Plot"))
(cx-gui-do cx-activate-item "NavigationPane*Frame2*Table1*List_Tree2")
(cx-gui-do cx-set-list-tree-selections "NavigationPane*Frame2*Table1*List_Tree2" (list "Results|Plots|XY Plot"))
(cx-gui-do cx-set-list-selections "Solution XY Plot*Table1*Table3*Table1*DropDownList1(Y Axis Function)" '( 2))
(cx-gui-do cx-activate-item "Solution XY Plot*Table1*Table3*Table1*DropDownList1(Y Axis Function)")
(cx-gui-do cx-set-list-selections "Solution XY Plot*Table1*Table3*Table2*DropDownList1(X Axis Function)" '( 0))
(cx-gui-do cx-activate-item "Solution XY Plot*Table1*Table3*Table2*DropDownList1(X Axis Function)")
(cx-gui-do cx-set-list-selections "Solution XY Plot*Table1*Table3*Frame3*List1(Surfaces)" '( 6))
(cx-gui-do cx-activate-item "Solution XY Plot*Table1*Table3*Frame3*List1(Surfaces)")
(cx-gui-do cx-activate-item "Solution XY Plot*PanelButtons*PushButton1(OK)")
(cx-gui-do cx-activate-item "ToolBar*Pointer*translate")
(cx-gui-do cx-activate-item "ToolBar*Pointer*translate")
(cx-gui-do cx-activate-item "ToolBar*Pointer*translate")
(cx-gui-do cx-set-list-selections "Solution XY Plot*Table1*Table3*Table1*DropDownList1(Y Axis Function)" '( 0))
(cx-gui-do cx-activate-item "Solution XY Plot*Table1*Table3*Table1*DropDownList1(Y Axis Function)")
(cx-gui-do cx-set-list-selections "Solution XY Plot*Table1*Table3*Table1*DropDownList1(Y Axis Function)" '( 3))
(cx-gui-do cx-activate-item "Solution XY Plot*Table1*Table3*Table1*DropDownList1(Y Axis Function)")
(cx-gui-do cx-activate-item "Solution XY Plot*PanelButtons*PushButton2(Cancel)")
(cx-gui-do cx-set-list-tree-selections "NavigationPane*Frame2*Table1*List_Tree2" (list "Results|Plots|XY Plot"))
(cx-gui-do cx-set-list-tree-selections "NavigationPane*Frame2*Table1*List_Tree2" (list "Results|Plots|XY Plot"))
(cx-gui-do cx-activate-item "NavigationPane*Frame2*Table1*List_Tree2")
(cx-gui-do cx-set-list-tree-selections "NavigationPane*Frame2*Table1*List_Tree2" (list "Results|Plots|XY Plot"))
(cx-gui-do cx-set-list-selections "Solution XY Plot*Table1*Table3*Table1*DropDownList1(Y Axis Function)" '( 0))
(cx-gui-do cx-activate-item "Solution XY Plot*Table1*Table3*Table1*DropDownList1(Y Axis Function)")
(cx-gui-do cx-set-toggle-button2 "Solution XY Plot*Table1*Table1*ButtonBox1(Options)*CheckButton4(Write to File)" #t)
(cx-gui-do cx-activate-item "Solution XY Plot*Table1*Table1*ButtonBox1(Options)*CheckButton4(Write to File)")
(cx-gui-do cx-set-list-selections "Solution XY Plot*Table1*Table3*Frame3*List1(Surfaces)" '( 6))
(cx-gui-do cx-activate-item "Solution XY Plot*Table1*Table3*Frame3*List1(Surfaces)")
(cx-gui-do cx-activate-item "Solution XY Plot*PanelButtons*PushButton1(OK)")
(cx-gui-do cx-set-file-dialog-entries "Select File" '( "graphique pressureXposition") "XY Files (*.xy)")
(cx-gui-do cx-set-list-selections "Solution XY Plot*Table1*Table3*Table1*DropDownList1(Y Axis Function)" '( 2))
(cx-gui-do cx-activate-item "Solution XY Plot*Table1*Table3*Table1*DropDownList1(Y Axis Function)")
(cx-gui-do cx-activate-item "Solution XY Plot*PanelButtons*PushButton1(OK)")
(cx-gui-do cx-set-file-dialog-entries "Select File" '( "vitesseXposition") "XY Files (*.xy)")
(cx-gui-do cx-set-list-selections "Solution XY Plot*Table1*Table3*Table1*DropDownList1(Y Axis Function)" '( 3))
(cx-gui-do cx-activate-item "Solution XY Plot*Table1*Table3*Table1*DropDownList1(Y Axis Function)")
(cx-gui-do cx-activate-item "Solution XY Plot*PanelButtons*PushButton1(OK)")
(cx-gui-do cx-set-file-dialog-entries "Select File" '( "turbulenceXposition") "XY Files (*.xy)")
(cx-gui-do cx-activate-item "Solution XY Plot*PanelButtons*PushButton2(Cancel)")
(cx-gui-do cx-set-list-tree-selections "NavigationPane*Frame2*Table1*List_Tree2" (list "Results|Plots|XY Plot"))
(cx-gui-do cx-set-list-tree-selections "NavigationPane*Frame2*Table1*List_Tree2" (list "Results|Plots|XY Plot"))
(cx-gui-do cx-activate-item "NavigationPane*Frame2*Table1*List_Tree2")
(cx-gui-do cx-set-list-tree-selections "NavigationPane*Frame2*Table1*List_Tree2" (list "Results|Plots|XY Plot"))
(cx-gui-do cx-set-list-selections "Solution XY Plot*Table1*Table3*Frame3*List1(Surfaces)" '( 6))
(cx-gui-do cx-activate-item "Solution XY Plot*Table1*Table3*Frame3*List1(Surfaces)")
(cx-gui-do cx-activate-item "Solution XY Plot*PanelButtons*PushButton1(OK)")
(cx-gui-do cx-set-list-selections "Solution XY Plot*Table1*Table3*Table1*DropDownList1(Y Axis Function)" '( 2))
(cx-gui-do cx-activate-item "Solution XY Plot*Table1*Table3*Table1*DropDownList1(Y Axis Function)")
(cx-gui-do cx-activate-item "Solution XY Plot*PanelButtons*PushButton1(OK)")
(cx-gui-do cx-set-list-selections "Solution XY Plot*Table1*Table3*Table1*DropDownList1(Y Axis Function)" '( 3))
(cx-gui-do cx-activate-item "Solution XY Plot*Table1*Table3*Table1*DropDownList1(Y Axis Function)")
(cx-gui-do cx-activate-item "Solution XY Plot*PanelButtons*PushButton1(OK)")
(cx-gui-do cx-set-list-selections "Solution XY Plot*Table1*Table3*Frame3*List1(Surfaces)" '( 4 6))
(cx-gui-do cx-activate-item "Solution XY Plot*Table1*Table3*Frame3*List1(Surfaces)")
(cx-gui-do cx-activate-item "Solution XY Plot*PanelButtons*PushButton1(OK)")
(cx-gui-do cx-set-list-selections "Solution XY Plot*Table1*Table3*Frame3*List1(Surfaces)" '( 4))
(cx-gui-do cx-activate-item "Solution XY Plot*Table1*Table3*Frame3*List1(Surfaces)")
(cx-gui-do cx-activate-item "Solution XY Plot*PanelButtons*PushButton1(OK)")
(cx-gui-do cx-set-list-selections "Solution XY Plot*Table1*Table3*Table1*DropDownList1(Y Axis Function)" '( 2))
(cx-gui-do cx-activate-item "Solution XY Plot*Table1*Table3*Table1*DropDownList1(Y Axis Function)")
(cx-gui-do cx-activate-item "Solution XY Plot*PanelButtons*PushButton1(OK)")
(cx-gui-do cx-set-list-selections "Solution XY Plot*Table1*Table3*Frame3*List1(Surfaces)" '( 4 6))
(cx-gui-do cx-activate-item "Solution XY Plot*Table1*Table3*Frame3*List1(Surfaces)")
(cx-gui-do cx-activate-item "Solution XY Plot*PanelButtons*PushButton1(OK)")
(cx-gui-do cx-activate-item "Solution XY Plot*PanelButtons*PushButton2(Cancel)")
(cx-gui-do cx-set-list-tree-selections "NavigationPane*Frame2*Table1*List_Tree2" (list "Results|Plots|Data Sources"))
(cx-gui-do cx-set-list-tree-selections "NavigationPane*Frame2*Table1*List_Tree2" (list "Results|Plots|Data Sources"))
(cx-gui-do cx-activate-item "NavigationPane*Frame2*Table1*List_Tree2")
(cx-gui-do cx-set-list-tree-selections "NavigationPane*Frame2*Table1*List_Tree2" (list "Results|Plots|Data Sources"))
(cx-gui-do cx-activate-item "Plot Data Sources*PanelButtons*PushButton2(Cancel)")
(cx-gui-do cx-set-list-tree-selections "NavigationPane*Frame2*Table1*List_Tree2" (list "Results|Plots|XY Plot|xy-plot-3"))
(cx-gui-do cx-set-list-tree-selections "NavigationPane*Frame2*Table1*List_Tree2" (list "Results|Plots|XY Plot|xy-plot-3"))
(cx-gui-do cx-activate-item "NavigationPane*Frame2*Table1*List_Tree2")
(cx-gui-do cx-set-list-tree-selections "NavigationPane*Frame2*Table1*List_Tree2" (list "Results|Plots|XY Plot|xy-plot-3"))
(cx-gui-do cx-activate-item "Solution XY Plot*PanelButtons*PushButton1(OK)")
(cx-gui-do cx-activate-item "Solution XY Plot*PanelButtons*PushButton2(Cancel)")
(cx-gui-do cx-set-list-tree-selections "NavigationPane*Frame2*Table1*List_Tree2" (list "Results|Plots|XY Plot|xy-plot-2"))
(cx-gui-do cx-set-list-tree-selections "NavigationPane*Frame2*Table1*List_Tree2" (list "Results|Plots|XY Plot|xy-plot-2"))
(cx-gui-do cx-activate-item "NavigationPane*Frame2*Table1*List_Tree2")
(cx-gui-do cx-set-list-tree-selections "NavigationPane*Frame2*Table1*List_Tree2" (list "Results|Plots|XY Plot|xy-plot-2"))
(cx-gui-do cx-activate-item "Solution XY Plot*PanelButtons*PushButton1(OK)")
(cx-gui-do cx-set-list-selections "Solution XY Plot*Table1*Table3*Frame3*List1(Surfaces)" '())
(cx-gui-do cx-activate-item "Solution XY Plot*Table1*Table3*Frame3*List1(Surfaces)")
(cx-gui-do cx-set-list-selections "Solution XY Plot*Table1*Table3*Frame3*List1(Surfaces)" '( 7))
(cx-gui-do cx-activate-item "Solution XY Plot*Table1*Table3*Frame3*List1(Surfaces)")
(cx-gui-do cx-set-list-selections "Solution XY Plot*Table1*Table3*Frame3*List1(Surfaces)" '( 7 8))
(cx-gui-do cx-activate-item "Solution XY Plot*Table1*Table3*Frame3*List1(Surfaces)")
(cx-gui-do cx-set-list-selections "Solution XY Plot*Table1*Table3*Frame3*List1(Surfaces)" '( 8))
(cx-gui-do cx-activate-item "Solution XY Plot*Table1*Table3*Frame3*List1(Surfaces)")
(cx-gui-do cx-activate-item "Solution XY Plot*PanelButtons*PushButton1(OK)")
(cx-gui-do cx-set-real-entry-list "Solution XY Plot*Table1*Table2*ButtonBox1(Plot Direction)*RealEntry1(X)" '( 0))
(cx-gui-do cx-set-real-entry-list "Solution XY Plot*Table1*Table2*ButtonBox1(Plot Direction)*RealEntry2(Y)" '( 1))
(cx-gui-do cx-activate-item "Solution XY Plot*PanelButtons*PushButton1(OK)")
(cx-gui-do cx-set-toggle-button2 "Solution XY Plot*Table1*Table1*ButtonBox1(Options)*CheckButton4(Write to File)" #t)
(cx-gui-do cx-activate-item "Solution XY Plot*Table1*Table1*ButtonBox1(Options)*CheckButton4(Write to File)")
(cx-gui-do cx-activate-item "Solution XY Plot*PanelButtons*PushButton1(OK)")
(cx-gui-do cx-activate-item "Solution XY Plot*PanelButtons*PushButton1(OK)")
(cx-gui-do cx-set-file-dialog-entries "Select File" '( "K112") "XY Files (*.xy)")
(cx-gui-do cx-set-list-selections "Solution XY Plot*Table1*Table3*Frame3*List1(Surfaces)" '( 8 9))
(cx-gui-do cx-activate-item "Solution XY Plot*Table1*Table3*Frame3*List1(Surfaces)")
(cx-gui-do cx-set-list-selections "Solution XY Plot*Table1*Table3*Frame3*List1(Surfaces)" '())
(cx-gui-do cx-activate-item "Solution XY Plot*Table1*Table3*Frame3*List1(Surfaces)")
(cx-gui-do cx-set-list-selections "Solution XY Plot*Table1*Table3*Frame3*List1(Surfaces)" '( 9))
(cx-gui-do cx-activate-item "Solution XY Plot*Table1*Table3*Frame3*List1(Surfaces)")
(cx-gui-do cx-activate-item "Solution XY Plot*PanelButtons*PushButton1(OK)")
(cx-gui-do cx-set-file-dialog-entries "Select File" '( "k120") "XY Files (*.xy)")
(cx-gui-do cx-set-list-selections "Solution XY Plot*Table1*Table3*Frame3*List1(Surfaces)" '( 9 10))
(cx-gui-do cx-activate-item "Solution XY Plot*Table1*Table3*Frame3*List1(Surfaces)")
(cx-gui-do cx-set-list-selections "Solution XY Plot*Table1*Table3*Frame3*List1(Surfaces)" '( 10))
(cx-gui-do cx-activate-item "Solution XY Plot*Table1*Table3*Frame3*List1(Surfaces)")
(cx-gui-do cx-set-list-selections "Solution XY Plot*Table1*Table3*Frame3*List1(Surfaces)" '())
(cx-gui-do cx-activate-item "Solution XY Plot*Table1*Table3*Frame3*List1(Surfaces)")
(cx-gui-do cx-set-list-selections "Solution XY Plot*Table1*Table3*Frame3*List1(Surfaces)" '( 10))
(cx-gui-do cx-activate-item "Solution XY Plot*Table1*Table3*Frame3*List1(Surfaces)")
(cx-gui-do cx-activate-item "Solution XY Plot*PanelButtons*PushButton1(OK)")
(cx-gui-do cx-set-file-dialog-entries "Select File" '( "k20") "XY Files (*.xy)")
(cx-gui-do cx-set-list-selections "Solution XY Plot*Table1*Table3*Frame3*List1(Surfaces)" '( 10 11))
(cx-gui-do cx-activate-item "Solution XY Plot*Table1*Table3*Frame3*List1(Surfaces)")
(cx-gui-do cx-set-list-selections "Solution XY Plot*Table1*Table3*Frame3*List1(Surfaces)" '( 11))
(cx-gui-do cx-activate-item "Solution XY Plot*Table1*Table3*Frame3*List1(Surfaces)")
(cx-gui-do cx-activate-item "Solution XY Plot*PanelButtons*PushButton1(OK)")
(cx-gui-do cx-set-file-dialog-entries "Select File" '( "k80") "XY Files (*.xy)")
(cx-gui-do cx-set-list-selections "Solution XY Plot*Table1*Table3*Table1*DropDownList1(Y Axis Function)" '( 2))
(cx-gui-do cx-activate-item "Solution XY Plot*Table1*Table3*Table1*DropDownList1(Y Axis Function)")
(cx-gui-do cx-set-toggle-button2 "Solution XY Plot*Table1*Table1*ButtonBox1(Options)*CheckButton4(Write to File)" #f)
(cx-gui-do cx-activate-item "Solution XY Plot*Table1*Table1*ButtonBox1(Options)*CheckButton4(Write to File)")
(cx-gui-do cx-activate-item "Solution XY Plot*PanelButtons*PushButton1(OK)")
(cx-gui-do cx-set-list-selections "Solution XY Plot*Table1*Table3*Frame3*List1(Surfaces)" '( 10 11))
(cx-gui-do cx-activate-item "Solution XY Plot*Table1*Table3*Frame3*List1(Surfaces)")
(cx-gui-do cx-set-list-selections "Solution XY Plot*Table1*Table3*Frame3*List1(Surfaces)" '( 11))
(cx-gui-do cx-activate-item "Solution XY Plot*Table1*Table3*Frame3*List1(Surfaces)")
(cx-gui-do cx-set-list-selections "Solution XY Plot*Table1*Table3*Frame3*List1(Surfaces)" '( 10 11))
(cx-gui-do cx-activate-item "Solution XY Plot*Table1*Table3*Frame3*List1(Surfaces)")
(cx-gui-do cx-set-list-selections "Solution XY Plot*Table1*Table3*Frame3*List1(Surfaces)" '( 10))
(cx-gui-do cx-activate-item "Solution XY Plot*Table1*Table3*Frame3*List1(Surfaces)")
(cx-gui-do cx-activate-item "Solution XY Plot*PanelButtons*PushButton1(OK)")
(cx-gui-do cx-set-list-selections "Solution XY Plot*Table1*Table3*Frame3*List1(Surfaces)" '( 7 10))
(cx-gui-do cx-activate-item "Solution XY Plot*Table1*Table3*Frame3*List1(Surfaces)")
(cx-gui-do cx-set-list-selections "Solution XY Plot*Table1*Table3*Frame3*List1(Surfaces)" '( 7 8 10))
(cx-gui-do cx-activate-item "Solution XY Plot*Table1*Table3*Frame3*List1(Surfaces)")
(cx-gui-do cx-set-list-selections "Solution XY Plot*Table1*Table3*Frame3*List1(Surfaces)" '( 8 10))
(cx-gui-do cx-activate-item "Solution XY Plot*Table1*Table3*Frame3*List1(Surfaces)")
(cx-gui-do cx-set-list-selections "Solution XY Plot*Table1*Table3*Frame3*List1(Surfaces)" '( 8))
(cx-gui-do cx-activate-item "Solution XY Plot*Table1*Table3*Frame3*List1(Surfaces)")
(cx-gui-do cx-activate-item "Solution XY Plot*PanelButtons*PushButton1(OK)")
(cx-gui-do cx-set-toggle-button2 "Solution XY Plot*Table1*Table1*ButtonBox1(Options)*CheckButton4(Write to File)" #t)
(cx-gui-do cx-activate-item "Solution XY Plot*Table1*Table1*ButtonBox1(Options)*CheckButton4(Write to File)")
(cx-gui-do cx-activate-item "Solution XY Plot*PanelButtons*PushButton1(OK)")
(cx-gui-do cx-set-file-dialog-entries "Select File" '( "x112") "XY Files (*.xy)")
(cx-gui-do cx-set-list-selections "Solution XY Plot*Table1*Table3*Frame3*List1(Surfaces)" '( 8 9))
(cx-gui-do cx-activate-item "Solution XY Plot*Table1*Table3*Frame3*List1(Surfaces)")
(cx-gui-do cx-set-list-selections "Solution XY Plot*Table1*Table3*Frame3*List1(Surfaces)" '( 9))
(cx-gui-do cx-activate-item "Solution XY Plot*Table1*Table3*Frame3*List1(Surfaces)")
(cx-gui-do cx-activate-item "Solution XY Plot*PanelButtons*PushButton1(OK)")
(cx-gui-do cx-set-file-dialog-entries "Select File" '( "x120") "XY Files (*.xy)")
(cx-gui-do cx-set-list-selections "Solution XY Plot*Table1*Table3*Frame3*List1(Surfaces)" '())
(cx-gui-do cx-activate-item "Solution XY Plot*Table1*Table3*Frame3*List1(Surfaces)")
(cx-gui-do cx-set-list-selections "Solution XY Plot*Table1*Table3*Frame3*List1(Surfaces)" '( 10))
(cx-gui-do cx-activate-item "Solution XY Plot*Table1*Table3*Frame3*List1(Surfaces)")
(cx-gui-do cx-activate-item "Solution XY Plot*PanelButtons*PushButton1(OK)")
(cx-gui-do cx-set-file-dialog-entries "Select File" '( "x20") "XY Files (*.xy)")
(cx-gui-do cx-set-list-selections "Solution XY Plot*Table1*Table3*Frame3*List1(Surfaces)" '())
(cx-gui-do cx-activate-item "Solution XY Plot*Table1*Table3*Frame3*List1(Surfaces)")
(cx-gui-do cx-set-list-selections "Solution XY Plot*Table1*Table3*Frame3*List1(Surfaces)" '( 11))
(cx-gui-do cx-activate-item "Solution XY Plot*Table1*Table3*Frame3*List1(Surfaces)")
(cx-gui-do cx-activate-item "Solution XY Plot*PanelButtons*PushButton1(OK)")
(cx-gui-do cx-set-file-dialog-entries "Select File" '( "x80") "XY Files (*.xy)")
(cx-gui-do cx-activate-item "Solution XY Plot*PanelButtons*PushButton2(Cancel)")
(cx-gui-do cx-activate-item "MenuBar*WriteSubMenu*Case & Data...")
(cx-gui-do cx-set-file-dialog-entries "Select File" '( "simulation.cas.h5") "CFF Case/Data Files (*.cas.h5 *.dat.h5 )")
Fast-loading "D:\Fluent\ANSYS Inc\ANSYS Student\v222\fluent\fluent22.2.0\\addons\afd\lib\hdfio.bin"
Done.

Writing to DESKTOP-Q48GHOV:"D:/ECL/TP2FLE/Etude numerique (simulation)/simulation.cas.h5" in NODE0 mode and compression level 1 ...
       17950 cells,     1 zone  ...
       36240 faces,     7 zones ...
       18291 nodes,     1 zone  ...
  Done.
Done.

Writing to DESKTOP-Q48GHOV:"D:/ECL/TP2FLE/Etude numerique (simulation)/simulation.dat.h5" in NODE0 mode and compression level 1 ...
  Writing results.
Done.
/exit y
Auto-Transcript Stop Time:  08:16:33, 24 Nov 2022 Hora oficial do Brasil 
Total Transcript Time: 1 Hour 53 Minute 9 Second.
